
OS:Version,
  {a421c1fb-2121-42df-9cbc-a7dd1c35de71}, !- Handle
  1.14.0;                                 !- Version Identifier

OS:Site,
  {651d40dc-7518-4897-a0ce-4c20d4dfffe5}, !- Handle
  USA IL-CHICAGO-OHARE,                   !- Name
  41.77,                                  !- Latitude {deg}
  -87.75,                                 !- Longitude {deg}
  -6,                                     !- Time Zone {hr}
  190,                                    !- Elevation {m}
  City;                                   !- Terrain

OS:SimulationControl,
  {1ffac5d3-ceb7-4441-b20b-9e5c62c9b6d0}, !- Handle
  Yes,                                    !- Do Zone Sizing Calculation
  Yes,                                    !- Do System Sizing Calculation
  Yes,                                    !- Do Plant Sizing Calculation
  No,                                     !- Run Simulation for Sizing Periods
  Yes,                                    !- Run Simulation for Weather File Run Periods
  0.04,                                   !- Loads Convergence Tolerance Value
  0.2,                                    !- Temperature Convergence Tolerance Value {deltaC}
  FullExterior,                           !- Solar Distribution
  366,                                    !- Maximum Number of Warmup Days
  365;                                    !- Minimum Number of Warmup Days

OS:Space,
  {5e71a239-bca3-4834-84bc-46d14a348ef2}, !- Handle
  Corner_Class_1_Pod_1_Flr_2,             !- Name
  {1ebe37c0-428c-4a78-9e73-b0260ac21ed2}, !- Space Type Name
  ,                                       !- Default Construction Set Name
  ,                                       !- Default Schedule Set Name
  -0,                                     !- Direction of Relative North {deg}
  0,                                      !- X Origin {m}
  0,                                      !- Y Origin {m}
  4,                                      !- Z Origin {m}
  {d70ff025-0756-4c4a-8a09-4dd06d795a2d}, !- Building Story Name
  {ded9ed46-bba6-448c-9d19-5208e5f4e926}, !- Thermal Zone Name
  Yes,                                    !- Part of Total Floor Area
  ;                                       !- Design Specification Outdoor Air Object Name

OS:ThermostatSetpoint:DualSetpoint,
  {6f3854da-4210-4a3e-adb3-d615319d5a77}, !- Handle
  {57c73b2f-9d96-43e5-b4cf-82bfe092cce9}, !- Name
  {f585eac1-2eeb-408a-a820-3a7cb13f177b}, !- Heating Setpoint Temperature Schedule Name
  {1cdddc10-a7e5-4241-a275-80655a7e252c}; !- Cooling Setpoint Temperature Schedule Name

OS:Schedule:Compact,
  {f585eac1-2eeb-408a-a820-3a7cb13f177b}, !- Handle
  HtgSetP_Sch,                            !- Name
  {7d1142a4-e4c6-4385-83ba-d0bf55c6e402}, !- Schedule Type Limits Name
  Through: 6/30,                          !- Field 1
  For: WinterDesignDay,                   !- Field 2
  Until: 24:00,                           !- Field 3
  21.7,                                   !- Field 4
  For: Weekdays,                          !- Field 5
  Until: 06:00,                           !- Field 6
  15.6,                                   !- Field 7
  Until: 18:00,                           !- Field 8
  21.7,                                   !- Field 9
  Until: 24:00,                           !- Field 10
  15.6,                                   !- Field 11
  For: AllOtherDays,                      !- Field 12
  Until: 24:00,                           !- Field 13
  15.6,                                   !- Field 14
  Through: 9/1,                           !- Field 15
  For: WinterDesignDay,                   !- Field 16
  Until: 24:00,                           !- Field 17
  21.7,                                   !- Field 18
  For: Weekdays,                          !- Field 19
  Until: 08:00,                           !- Field 20
  15.6,                                   !- Field 21
  Until: 13:00,                           !- Field 22
  21.7,                                   !- Field 23
  Until: 24:00,                           !- Field 24
  15.6,                                   !- Field 25
  For: AllOtherDays,                      !- Field 26
  Until: 24:00,                           !- Field 27
  15.6,                                   !- Field 28
  Through: 12/31,                         !- Field 29
  For: WinterDesignDay,                   !- Field 30
  Until: 24:00,                           !- Field 31
  21.7,                                   !- Field 32
  For: Weekdays,                          !- Field 33
  Until: 06:00,                           !- Field 34
  15.6,                                   !- Field 35
  Until: 18:00,                           !- Field 36
  21.7,                                   !- Field 37
  Until: 24:00,                           !- Field 38
  15.6,                                   !- Field 39
  For: AllOtherDays,                      !- Field 40
  Until: 24:00,                           !- Field 41
  15.6;                                   !- Field 42

OS:ScheduleTypeLimits,
  {7d1142a4-e4c6-4385-83ba-d0bf55c6e402}, !- Handle
  Temperature,                            !- Name
  -60,                                    !- Lower Limit Value
  200,                                    !- Upper Limit Value
  CONTINUOUS,                             !- Numeric Type
  Temperature;                            !- Unit Type

OS:Schedule:Compact,
  {1cdddc10-a7e5-4241-a275-80655a7e252c}, !- Handle
  ClgSetP_Sch,                            !- Name
  {7d1142a4-e4c6-4385-83ba-d0bf55c6e402}, !- Schedule Type Limits Name
  Through: 6/30,                          !- Field 1
  For: SummerDesignDay,                   !- Field 2
  Until: 24:00,                           !- Field 3
  23.3,                                   !- Field 4
  For: Weekdays,                          !- Field 5
  Until: 06:00,                           !- Field 6
  27.2,                                   !- Field 7
  Until: 18:00,                           !- Field 8
  23.3,                                   !- Field 9
  Until: 24:00,                           !- Field 10
  27.2,                                   !- Field 11
  For: AllOtherDays,                      !- Field 12
  Until: 24:00,                           !- Field 13
  27.2,                                   !- Field 14
  Through: 9/1,                           !- Field 15
  For: SummerDesignDay,                   !- Field 16
  Until: 24:00,                           !- Field 17
  23.3,                                   !- Field 18
  For: Weekdays,                          !- Field 19
  Until: 08:00,                           !- Field 20
  27.2,                                   !- Field 21
  Until: 13:00,                           !- Field 22
  23.3,                                   !- Field 23
  Until: 24:00,                           !- Field 24
  27.2,                                   !- Field 25
  For: AllOtherDays,                      !- Field 26
  Until: 24:00,                           !- Field 27
  27.2,                                   !- Field 28
  Through: 12/31,                         !- Field 29
  For: SummerDesignDay,                   !- Field 30
  Until: 24:00,                           !- Field 31
  23.3,                                   !- Field 32
  For: Weekdays,                          !- Field 33
  Until: 06:00,                           !- Field 34
  27.2,                                   !- Field 35
  Until: 18:00,                           !- Field 36
  23.3,                                   !- Field 37
  Until: 24:00,                           !- Field 38
  27.2,                                   !- Field 39
  For: AllOtherDays,                      !- Field 40
  Until: 24:00,                           !- Field 41
  27.2;                                   !- Field 42

OS:ScheduleTypeLimits,
  {ce69a369-b82f-4355-8f8d-e1ccf7274cf6}, !- Handle
  Fraction,                               !- Name
  0,                                      !- Lower Limit Value
  1,                                      !- Upper Limit Value
  CONTINUOUS;                             !- Numeric Type

OS:Surface,
  {15cc137a-46fd-462c-b3b2-cb2a991bc986}, !- Handle
  Bathrooms_Flr_2 - Wall 270:a,           !- Name
  Wall,                                   !- Surface Type
  ,                                       !- Construction Name
  {842e2cd3-6249-418c-97e3-0323e2bd4212}, !- Space Name
  Outdoors,                               !- Outside Boundary Condition
  ,                                       !- Outside Boundary Condition Object
  SunExposed,                             !- Sun Exposure
  WindExposed,                            !- Wind Exposure
  ,                                       !- View Factor to Ground
  ,                                       !- Number of Vertices
  0, 9.34720000000002, 4,                 !- X,Y,Z Vertex 1 {m}
  0, 9.34720000000002, 4.33146851719357e-15, !- X,Y,Z Vertex 2 {m}
  0, 0, 0,                                !- X,Y,Z Vertex 3 {m}
  0, 0, 4;                                !- X,Y,Z Vertex 4 {m}

OS:Construction,
  {b4c246be-c38b-4848-a024-7a5fb3ba2df8}, !- Handle
  Standard_Int-Wall,                      !- Name
  {7b40cfc2-554c-4a80-9c29-ead1813218fb}, !- Surface Rendering Name
  {08b940b4-e641-417d-a59f-85b76333bd66}, !- Layer 1
  {08b940b4-e641-417d-a59f-85b76333bd66}; !- Layer 2

OS:Material,
  {08b940b4-e641-417d-a59f-85b76333bd66}, !- Handle
  GP01 1/2 GYPSUM,                        !- Name
  Smooth,                                 !- Roughness
  0.0127,                                 !- Thickness {m}
  0.16,                                   !- Conductivity {W/m-K}
  800,                                    !- Density {kg/m3}
  1090,                                   !- Specific Heat {J/kg-K}
  0.9,                                    !- Thermal Absorptance
  0.7,                                    !- Solar Absorptance
  0.5;                                    !- Visible Absorptance

OS:Space,
  {842e2cd3-6249-418c-97e3-0323e2bd4212}, !- Handle
  Bathrooms_Flr_2,                        !- Name
  {41bbcf44-3b2a-413b-9419-02500795b7d6}, !- Space Type Name
  ,                                       !- Default Construction Set Name
  ,                                       !- Default Schedule Set Name
  -0,                                     !- Direction of Relative North {deg}
  64,                                     !- X Origin {m}
  90,                                     !- Y Origin {m}
  4,                                      !- Z Origin {m}
  {d70ff025-0756-4c4a-8a09-4dd06d795a2d}, !- Building Story Name
  {a6de8016-9dd7-4303-9c7f-d0c98c2f36ac}, !- Thermal Zone Name
  Yes,                                    !- Part of Total Floor Area
  ;                                       !- Design Specification Outdoor Air Object Name

OS:ThermostatSetpoint:DualSetpoint,
  {d3e0a84a-d710-4762-96fe-59167a2faa6f}, !- Handle
  {1f4c2841-756c-4c8c-93e7-27252bae799f}, !- Name
  {f585eac1-2eeb-408a-a820-3a7cb13f177b}, !- Heating Setpoint Temperature Schedule Name
  {1cdddc10-a7e5-4241-a275-80655a7e252c}; !- Cooling Setpoint Temperature Schedule Name

OS:ScheduleTypeLimits,
  {3a42374d-5866-483a-9dd7-0584474d1056}, !- Handle
  On/Off,                                 !- Name
  0,                                      !- Lower Limit Value
  1,                                      !- Upper Limit Value
  DISCRETE,                               !- Numeric Type
  Availability;                           !- Unit Type

OS:Surface,
  {a25b0d92-fac9-4d32-b082-aa3702c50132}, !- Handle
  Corridor_Pod_3_Flr_2 - Wall 180:b,      !- Name
  Wall,                                   !- Surface Type
  ,                                       !- Construction Name
  {40ab9d79-f0c8-4515-be79-7a69728268b8}, !- Space Name
  Surface,                                !- Outside Boundary Condition
  {401f1486-5daa-43d4-b7e1-655d466c55ab}, !- Outside Boundary Condition Object
  NoSun,                                  !- Sun Exposure
  NoWind,                                 !- Wind Exposure
  ,                                       !- View Factor to Ground
  ,                                       !- Number of Vertices
  11, 0, 4,                               !- X,Y,Z Vertex 1 {m}
  11, 0, 0,                               !- X,Y,Z Vertex 2 {m}
  64, 0, 0,                               !- X,Y,Z Vertex 3 {m}
  64, 0, 4;                               !- X,Y,Z Vertex 4 {m}

OS:Space,
  {40ab9d79-f0c8-4515-be79-7a69728268b8}, !- Handle
  Corridor_Pod_3_Flr_2,                   !- Name
  {7146a8e5-0b54-43ca-b508-7f0f1132c9a3}, !- Space Type Name
  ,                                       !- Default Construction Set Name
  ,                                       !- Default Schedule Set Name
  -0,                                     !- Direction of Relative North {deg}
  2.31011654250324e-14,                   !- X Origin {m}
  49,                                     !- Y Origin {m}
  8,                                      !- Z Origin {m}
  {8e63aa56-4eb8-4170-a13e-e60d032492da}, !- Building Story Name
  {16cd1d0c-bda2-415d-9856-f84b46a43d11}, !- Thermal Zone Name
  Yes,                                    !- Part of Total Floor Area
  ;                                       !- Design Specification Outdoor Air Object Name

OS:ThermostatSetpoint:DualSetpoint,
  {61400c54-eff7-490d-aad9-20d5c9dfaa21}, !- Handle
  {1f794075-53a1-4cd0-827f-bc4fd7144ab4}, !- Name
  {f585eac1-2eeb-408a-a820-3a7cb13f177b}, !- Heating Setpoint Temperature Schedule Name
  {1cdddc10-a7e5-4241-a275-80655a7e252c}; !- Cooling Setpoint Temperature Schedule Name

OS:Space,
  {94dbec36-c615-4cd4-b383-94b15975977f}, !- Handle
  Mult_Class_2_Pod_1_Flr_1,               !- Name
  {1ebe37c0-428c-4a78-9e73-b0260ac21ed2}, !- Space Type Name
  ,                                       !- Default Construction Set Name
  ,                                       !- Default Schedule Set Name
  -0,                                     !- Direction of Relative North {deg}
  11,                                     !- X Origin {m}
  14,                                     !- Y Origin {m}
  0,                                      !- Z Origin {m}
  {0713634b-38dc-423f-bf84-af3f98782692}, !- Building Story Name
  {f3f2e63d-9499-487e-803f-f7c9c53e9028}, !- Thermal Zone Name
  Yes,                                    !- Part of Total Floor Area
  ;                                       !- Design Specification Outdoor Air Object Name

OS:ThermostatSetpoint:DualSetpoint,
  {05ebfd13-6aac-4113-aad0-5e5dc685c0e9}, !- Handle
  {bd072033-163f-445b-af44-650748edfe87}, !- Name
  {f585eac1-2eeb-408a-a820-3a7cb13f177b}, !- Heating Setpoint Temperature Schedule Name
  {1cdddc10-a7e5-4241-a275-80655a7e252c}; !- Cooling Setpoint Temperature Schedule Name

OS:Surface,
  {4bee6e0e-40bb-4a48-a696-93c468f5402b}, !- Handle
  Corridor_Pod_1_Flr_2 - Wall 000:b,      !- Name
  Wall,                                   !- Surface Type
  ,                                       !- Construction Name
  {adb9b886-1275-4b3a-9a8b-a43544793057}, !- Space Name
  Surface,                                !- Outside Boundary Condition
  {5b66ec86-3ce1-46f6-8a3f-96b31e655264}, !- Outside Boundary Condition Object
  NoSun,                                  !- Sun Exposure
  NoWind,                                 !- Wind Exposure
  ,                                       !- View Factor to Ground
  ,                                       !- Number of Vertices
  64, 5, 4,                               !- X,Y,Z Vertex 1 {m}
  64, 5, 0,                               !- X,Y,Z Vertex 2 {m}
  11, 5, 0,                               !- X,Y,Z Vertex 3 {m}
  11, 5, 4;                               !- X,Y,Z Vertex 4 {m}

OS:Space,
  {adb9b886-1275-4b3a-9a8b-a43544793057}, !- Handle
  Corridor_Pod_1_Flr_2,                   !- Name
  {7146a8e5-0b54-43ca-b508-7f0f1132c9a3}, !- Space Type Name
  ,                                       !- Default Construction Set Name
  ,                                       !- Default Schedule Set Name
  -0,                                     !- Direction of Relative North {deg}
  0,                                      !- X Origin {m}
  9,                                      !- Y Origin {m}
  4,                                      !- Z Origin {m}
  {d70ff025-0756-4c4a-8a09-4dd06d795a2d}, !- Building Story Name
  {6d4f0663-feb5-43e3-a3f2-f7f82955ca7a}, !- Thermal Zone Name
  Yes,                                    !- Part of Total Floor Area
  ;                                       !- Design Specification Outdoor Air Object Name

OS:ThermostatSetpoint:DualSetpoint,
  {0174fed5-82f9-4950-9b20-f1a3798fde9e}, !- Handle
  {500e2836-cc89-4bf7-8b8b-903a93fa9711}, !- Name
  {f585eac1-2eeb-408a-a820-3a7cb13f177b}, !- Heating Setpoint Temperature Schedule Name
  {1cdddc10-a7e5-4241-a275-80655a7e252c}; !- Cooling Setpoint Temperature Schedule Name

OS:Surface,
  {759c3831-cd9b-428d-a5f6-01afdb63bd47}, !- Handle
  Auditorium_Flr_1 - Floor:a,             !- Name
  Floor,                                  !- Surface Type
  ,                                       !- Construction Name
  {7effd178-bc2b-434d-bb77-6f130f342e59}, !- Space Name
  Ground,                                 !- Outside Boundary Condition
  ,                                       !- Outside Boundary Condition Object
  NoSun,                                  !- Sun Exposure
  NoWind,                                 !- Wind Exposure
  ,                                       !- View Factor to Ground
  ,                                       !- Number of Vertices
  38, 26, 0,                              !- X,Y,Z Vertex 1 {m}
  38, 0, 0,                               !- X,Y,Z Vertex 2 {m}
  0, 0, 0,                                !- X,Y,Z Vertex 3 {m}
  0, 26, 0;                               !- X,Y,Z Vertex 4 {m}

OS:Construction,
  {6aaf4059-52a4-40a8-a33a-68cc5e8a9301}, !- Handle
  ASHRAE 90.1-1999_Table B-2_Unheated_Ext-slab, !- Name
  {913025c8-bc95-4873-925a-b6ad7427c39d}, !- Surface Rendering Name
  {13baf3d5-fd7d-417d-9ee4-9b4cec61dc7c}, !- Layer 1
  {b2397a8b-6087-4a94-a522-06976999caeb}; !- Layer 2

OS:Material,
  {13baf3d5-fd7d-417d-9ee4-9b4cec61dc7c}, !- Handle
  MAT-CC05 8 HW CONCRETE,                 !- Name
  Rough,                                  !- Roughness
  0.2032,                                 !- Thickness {m}
  1.311,                                  !- Conductivity {W/m-K}
  2240,                                   !- Density {kg/m3}
  836.8,                                  !- Specific Heat {J/kg-K}
  0.9,                                    !- Thermal Absorptance
  0.7,                                    !- Solar Absorptance
  0.7;                                    !- Visible Absorptance

OS:Material:NoMass,
  {b2397a8b-6087-4a94-a522-06976999caeb}, !- Handle
  CP02 CARPET PAD,                        !- Name
  VeryRough,                              !- Roughness
  0.2165,                                 !- Thermal Resistance {m2-K/W}
  0.9,                                    !- Thermal Absorptance
  0.7,                                    !- Solar Absorptance
  0.8;                                    !- Visible Absorptance

OS:Space,
  {7effd178-bc2b-434d-bb77-6f130f342e59}, !- Handle
  Auditorium_Flr_1,                       !- Name
  {1a46bd8b-688b-483f-8339-64735ff4131a}, !- Space Type Name
  ,                                       !- Default Construction Set Name
  ,                                       !- Default Schedule Set Name
  -0,                                     !- Direction of Relative North {deg}
  79,                                     !- X Origin {m}
  75,                                     !- Y Origin {m}
  0,                                      !- Z Origin {m}
  {0713634b-38dc-423f-bf84-af3f98782692}, !- Building Story Name
  {545d298f-8f16-4463-9e00-bef6a19bd82e}, !- Thermal Zone Name
  Yes,                                    !- Part of Total Floor Area
  ;                                       !- Design Specification Outdoor Air Object Name

OS:ThermostatSetpoint:DualSetpoint,
  {c206e4c1-3ba7-4e90-84e9-6a6e70b9a862}, !- Handle
  {1f2ae0e5-95ab-430c-9c4a-fdfe37f204ed}, !- Name
  {f4674618-5a70-415d-872d-b381633d56ef}, !- Heating Setpoint Temperature Schedule Name
  {9f8374cb-39dc-4fc5-b094-c2d4021eec59}; !- Cooling Setpoint Temperature Schedule Name

OS:Schedule:Compact,
  {f4674618-5a70-415d-872d-b381633d56ef}, !- Handle
  GymAud_HtgSetP_Sch,                     !- Name
  {7d1142a4-e4c6-4385-83ba-d0bf55c6e402}, !- Schedule Type Limits Name
  Through: 6/30,                          !- Field 1
  For: WinterDesignDay,                   !- Field 2
  Until: 24:00,                           !- Field 3
  21.7,                                   !- Field 4
  For: Weekdays,                          !- Field 5
  Until: 06:00,                           !- Field 6
  15.6,                                   !- Field 7
  Until: 21:00,                           !- Field 8
  21.7,                                   !- Field 9
  Until: 24:00,                           !- Field 10
  15.6,                                   !- Field 11
  For: AllOtherDays,                      !- Field 12
  Until: 24:00,                           !- Field 13
  15.6,                                   !- Field 14
  Through: 9/1,                           !- Field 15
  For: WinterDesignDay,                   !- Field 16
  Until: 24:00,                           !- Field 17
  21.7,                                   !- Field 18
  For: Weekdays,                          !- Field 19
  Until: 08:00,                           !- Field 20
  15.6,                                   !- Field 21
  Until: 15:00,                           !- Field 22
  21.7,                                   !- Field 23
  Until: 24:00,                           !- Field 24
  15.6,                                   !- Field 25
  For: AllOtherDays,                      !- Field 26
  Until: 24:00,                           !- Field 27
  15.6,                                   !- Field 28
  Through: 12/31,                         !- Field 29
  For: WinterDesignDay,                   !- Field 30
  Until: 24:00,                           !- Field 31
  21.7,                                   !- Field 32
  For: Weekdays,                          !- Field 33
  Until: 06:00,                           !- Field 34
  15.6,                                   !- Field 35
  Until: 21:00,                           !- Field 36
  21.7,                                   !- Field 37
  Until: 24:00,                           !- Field 38
  15.6,                                   !- Field 39
  For: AllOtherDays,                      !- Field 40
  Until: 24:00,                           !- Field 41
  15.6;                                   !- Field 42

OS:Schedule:Compact,
  {9f8374cb-39dc-4fc5-b094-c2d4021eec59}, !- Handle
  GymAud_ClgSetP_Sch,                     !- Name
  {7d1142a4-e4c6-4385-83ba-d0bf55c6e402}, !- Schedule Type Limits Name
  Through: 6/30,                          !- Field 1
  For: SummerDesignDay,                   !- Field 2
  Until: 24:00,                           !- Field 3
  23.3,                                   !- Field 4
  For: Weekdays,                          !- Field 5
  Until: 06:00,                           !- Field 6
  27.2,                                   !- Field 7
  Until: 21:00,                           !- Field 8
  23.3,                                   !- Field 9
  Until: 24:00,                           !- Field 10
  27.2,                                   !- Field 11
  For: AllOtherDays,                      !- Field 12
  Until: 24:00,                           !- Field 13
  27.2,                                   !- Field 14
  Through: 9/1,                           !- Field 15
  For: SummerDesignDay,                   !- Field 16
  Until: 24:00,                           !- Field 17
  23.3,                                   !- Field 18
  For: Weekdays,                          !- Field 19
  Until: 08:00,                           !- Field 20
  27.2,                                   !- Field 21
  Until: 15:00,                           !- Field 22
  23.3,                                   !- Field 23
  Until: 24:00,                           !- Field 24
  27.2,                                   !- Field 25
  For: AllOtherDays,                      !- Field 26
  Until: 24:00,                           !- Field 27
  27.2,                                   !- Field 28
  Through: 12/31,                         !- Field 29
  For: SummerDesignDay,                   !- Field 30
  Until: 24:00,                           !- Field 31
  23.3,                                   !- Field 32
  For: Weekdays,                          !- Field 33
  Until: 06:00,                           !- Field 34
  27.2,                                   !- Field 35
  Until: 21:00,                           !- Field 36
  23.3,                                   !- Field 37
  Until: 24:00,                           !- Field 38
  27.2,                                   !- Field 39
  For: AllOtherDays,                      !- Field 40
  Until: 24:00,                           !- Field 41
  27.2;                                   !- Field 42

OS:Surface,
  {fa6486fb-406c-4663-9871-afa468618284}, !- Handle
  Corridor_Pod_1_Flr_1 - Floor:a,         !- Name
  Floor,                                  !- Surface Type
  ,                                       !- Construction Name
  {610f8dd3-2a68-4243-a5d0-4a2319575708}, !- Space Name
  Ground,                                 !- Outside Boundary Condition
  ,                                       !- Outside Boundary Condition Object
  NoSun,                                  !- Sun Exposure
  NoWind,                                 !- Wind Exposure
  ,                                       !- View Factor to Ground
  ,                                       !- Number of Vertices
  64, 5, 0,                               !- X,Y,Z Vertex 1 {m}
  64, 0, 0,                               !- X,Y,Z Vertex 2 {m}
  0, 0, 0,                                !- X,Y,Z Vertex 3 {m}
  0, 5, 0;                                !- X,Y,Z Vertex 4 {m}

OS:Space,
  {610f8dd3-2a68-4243-a5d0-4a2319575708}, !- Handle
  Corridor_Pod_1_Flr_1,                   !- Name
  {7146a8e5-0b54-43ca-b508-7f0f1132c9a3}, !- Space Type Name
  ,                                       !- Default Construction Set Name
  ,                                       !- Default Schedule Set Name
  -0,                                     !- Direction of Relative North {deg}
  0,                                      !- X Origin {m}
  9,                                      !- Y Origin {m}
  0,                                      !- Z Origin {m}
  {0713634b-38dc-423f-bf84-af3f98782692}, !- Building Story Name
  {0d75cc1e-729f-4b73-beeb-b0d63adeffba}, !- Thermal Zone Name
  Yes,                                    !- Part of Total Floor Area
  ;                                       !- Design Specification Outdoor Air Object Name

OS:ThermostatSetpoint:DualSetpoint,
  {f09950d7-cfdc-488a-a716-b4e3e484b2e4}, !- Handle
  {1ca19f0e-9709-482a-abe6-7c31d8dc1690}, !- Name
  {f585eac1-2eeb-408a-a820-3a7cb13f177b}, !- Heating Setpoint Temperature Schedule Name
  {1cdddc10-a7e5-4241-a275-80655a7e252c}; !- Cooling Setpoint Temperature Schedule Name

OS:Space,
  {8cac9089-5ac6-4780-801e-1713e550428b}, !- Handle
  Art_Class_Flr_2,                        !- Name
  {ce8d99a7-a116-421e-9ecb-044685beb542}, !- Space Type Name
  ,                                       !- Default Construction Set Name
  ,                                       !- Default Schedule Set Name
  -0,                                     !- Direction of Relative North {deg}
  11,                                     !- X Origin {m}
  54,                                     !- Y Origin {m}
  8,                                      !- Z Origin {m}
  {8e63aa56-4eb8-4170-a13e-e60d032492da}, !- Building Story Name
  {0c3f95ec-fd64-4a57-bcff-1543993ffc6e}, !- Thermal Zone Name
  Yes,                                    !- Part of Total Floor Area
  ;                                       !- Design Specification Outdoor Air Object Name

OS:ThermostatSetpoint:DualSetpoint,
  {c37df83e-8ac6-4a80-b7f6-518fbad9118e}, !- Handle
  {98e691b6-f00c-4abb-92e5-5dcb6817d6bc}, !- Name
  {f585eac1-2eeb-408a-a820-3a7cb13f177b}, !- Heating Setpoint Temperature Schedule Name
  {1cdddc10-a7e5-4241-a275-80655a7e252c}; !- Cooling Setpoint Temperature Schedule Name

OS:Surface,
  {5cab7073-d055-44b9-b78f-9c63af167ad6}, !- Handle
  Mult_Class_1_Pod_1_Flr_2 - Wall 180:a,  !- Name
  Wall,                                   !- Surface Type
  ,                                       !- Construction Name
  {e5bb951e-8e41-4470-a58c-62d38e3110aa}, !- Space Name
  Outdoors,                               !- Outside Boundary Condition
  ,                                       !- Outside Boundary Condition Object
  SunExposed,                             !- Sun Exposure
  WindExposed,                            !- Wind Exposure
  ,                                       !- View Factor to Ground
  ,                                       !- Number of Vertices
  0, 0, 4,                                !- X,Y,Z Vertex 1 {m}
  0, 0, 0,                                !- X,Y,Z Vertex 2 {m}
  53, 0, 0,                               !- X,Y,Z Vertex 3 {m}
  53, 0, 4;                               !- X,Y,Z Vertex 4 {m}

OS:Construction,
  {96ca3f98-0901-4f7c-a456-9e027daaabc0}, !- Handle
  Steel-Framed_R-13_Ext-wall,             !- Name
  {ab3ff252-45f1-4709-b9b4-0e987117f7fd}, !- Surface Rendering Name
  {f259a8e0-f70b-449b-9d2b-3545bf3a3553}, !- Layer 1
  {557eb347-a943-439b-a1e9-9e9736e9c5ea}, !- Layer 2
  {b7a4f822-d5db-4828-93cc-d862ac7b4b9c}; !- Layer 3

OS:Material:NoMass,