
OS:Version,
  {fe57ad2f-39f1-4ded-af39-01607fa2a96c}, !- Handle
  2.8.0;                                  !- Version Identifier

