
OS:Version,
  {3fb91586-4358-4bfb-980d-f1ab29327a8d}, !- Handle
  2.8.0;                                  !- Version Identifier

OS:SpaceType,
  {8ab88772-12d1-43d9-b92b-badf7074613c}, !- Handle
  LargeHotel Banquet,                     !- Name
  ,                                       !- Default Construction Set Name
  ,                                       !- Default Schedule Set Name
  {f1878b4c-3f18-431d-af69-8ade885c3503}, !- Group Rendering Name
  ,                                       !- Design Specification Outdoor Air Object Name
  ,                                       !- Standards Template
  LargeHotel,                             !- Standards Building Type
  Banquet;                                !- Standards Space Type

OS:Rendering:Color,
  {f1878b4c-3f18-431d-af69-8ade885c3503}, !- Handle
  LargeHotel Banquet,                     !- Name
  230,                                    !- Rendering Red Value
  196,                                    !- Rendering Green Value
  120;                                    !- Rendering Blue Value

OS:SpaceType,
  {7995aac2-69fe-46a0-aef3-f19cc05e02c4}, !- Handle
  LargeHotel Cafe,                        !- Name
  ,                                       !- Default Construction Set Name
  ,                                       !- Default Schedule Set Name
  {366dab6c-33b2-41d1-ac9e-cc8b80585190}, !- Group Rendering Name
  ,                                       !- Design Specification Outdoor Air Object Name
  ,                                       !- Standards Template
  LargeHotel,                             !- Standards Building Type
  Cafe;                                   !- Standards Space Type

OS:Rendering:Color,
  {366dab6c-33b2-41d1-ac9e-cc8b80585190}, !- Handle
  LargeHotel Cafe,                        !- Name
  31,                                     !- Rendering Red Value
  169,                                    !- Rendering Green Value
  34;                                     !- Rendering Blue Value

OS:SpaceType,
  {011e19df-7882-4c2a-aab8-2529081c0960}, !- Handle
  LargeHotel Corridor,                    !- Name
  ,                                       !- Default Construction Set Name
  ,                                       !- Default Schedule Set Name
  {3aca9668-d05a-42bc-91c9-3adc8557e6dd}, !- Group Rendering Name
  ,                                       !- Design Specification Outdoor Air Object Name
  ,                                       !- Standards Template
  LargeHotel,                             !- Standards Building Type
  Corridor;                               !- Standards Space Type

OS:Rendering:Color,
  {3aca9668-d05a-42bc-91c9-3adc8557e6dd}, !- Handle
  LargeHotel Corridor,                    !- Name
  169,                                    !- Rendering Red Value
  31,                                     !- Rendering Green Value
  31;                                     !- Rendering Blue Value

OS:SpaceType,
  {e628d36c-6f6c-44b0-9654-7a9358c57af7}, !- Handle
  LargeHotel GuestRoom,                   !- Name
  ,                                       !- Default Construction Set Name
  ,                                       !- Default Schedule Set Name
  {c72818f3-0530-47fd-b5cb-9b50e0afb0c2}, !- Group Rendering Name
  ,                                       !- Design Specification Outdoor Air Object Name
  ,                                       !- Standards Template
  LargeHotel,                             !- Standards Building Type
  GuestRoom;                              !- Standards Space Type

OS:Rendering:Color,
  {c72818f3-0530-47fd-b5cb-9b50e0afb0c2}, !- Handle
  LargeHotel GuestRoom,                   !- Name
  78,                                     !- Rendering Red Value
  167,                                    !- Rendering Green Value
  222;                                    !- Rendering Blue Value

OS:SpaceType,
  {3c951453-9226-4c9f-905f-578e46bace05}, !- Handle
  LargeHotel Kitchen,                     !- Name
  ,                                       !- Default Construction Set Name
  ,                                       !- Default Schedule Set Name
  {e78732d2-ddec-4df6-ab67-37ddc27b72b1}, !- Group Rendering Name
  ,                                       !- Design Specification Outdoor Air Object Name
  ,                                       !- Standards Template
  LargeHotel,                             !- Standards Building Type
  Kitchen;                                !- Standards Space Type

OS:Rendering:Color,
  {e78732d2-ddec-4df6-ab67-37ddc27b72b1}, !- Handle
  LargeHotel Kitchen,                     !- Name
  78,                                     !- Rendering Red Value
  222,                                    !- Rendering Green Value
  133;                                    !- Rendering Blue Value

OS:SpaceType,
  {d340d538-af9f-4e33-96e8-634b6d3ab8dd}, !- Handle
  LargeHotel Laundry,                     !- Name
  ,                                       !- Default Construction Set Name
  ,                                       !- Default Schedule Set Name
  {edf33b69-cd53-46a4-b5c1-31fbe1b50a8c}, !- Group Rendering Name
  ,                                       !- Design Specification Outdoor Air Object Name
  ,                                       !- Standards Template
  LargeHotel,                             !- Standards Building Type
  Laundry;                                !- Standards Space Type

OS:Rendering:Color,
  {edf33b69-cd53-46a4-b5c1-31fbe1b50a8c}, !- Handle
  LargeHotel Laundry,                     !- Name
  120,                                    !- Rendering Red Value
  149,                                    !- Rendering Green Value
  230;                                    !- Rendering Blue Value

OS:SpaceType,
  {27ed7be5-f2b5-4d2c-8251-71db0aaf3b23}, !- Handle
  LargeHotel Lobby,                       !- Name
  ,                                       !- Default Construction Set Name
  ,                                       !- Default Schedule Set Name
  {e22c728b-e93c-43ae-bb00-45d02c41570b}, !- Group Rendering Name
  ,                                       !- Design Specification Outdoor Air Object Name
  ,                                       !- Standards Template
  LargeHotel,                             !- Standards Building Type
  Lobby;                                  !- Standards Space Type

OS:Rendering:Color,
  {e22c728b-e93c-43ae-bb00-45d02c41570b}, !- Handle
  LargeHotel Lobby,                       !- Name
  230,                                    !- Rendering Red Value
  157,                                    !- Rendering Green Value
  120;                                    !- Rendering Blue Value

OS:SpaceType,
  {b80c0f85-19cd-44e7-a9ab-6a3b87958149}, !- Handle
  LargeHotel Mechanical,                  !- Name
  ,                                       !- Default Construction Set Name
  ,                                       !- Default Schedule Set Name
  {2ba39f4c-f187-438a-a073-74bd0fe6b21c}, !- Group Rendering Name
  ,                                       !- Design Specification Outdoor Air Object Name
  ,                                       !- Standards Template
  LargeHotel,                             !- Standards Building Type
  Mechanical;                             !- Standards Space Type

OS:Rendering:Color,
  {2ba39f4c-f187-438a-a073-74bd0fe6b21c}, !- Handle
  LargeHotel Mechanical,                  !- Name
  41,                                     !- Rendering Red Value
  31,                                     !- Rendering Green Value
  169;                                    !- Rendering Blue Value

OS:SpaceType,
  {15375caa-ac6f-40f0-9c22-52a844ca077f}, !- Handle
  LargeHotel Retail,                      !- Name
  ,                                       !- Default Construction Set Name
  ,                                       !- Default Schedule Set Name
  {f1218e1a-fdde-4122-be5f-66e15aaddabc}, !- Group Rendering Name
  ,                                       !- Design Specification Outdoor Air Object Name
  ,                                       !- Standards Template
  LargeHotel,                             !- Standards Building Type
  Retail;                                 !- Standards Space Type

OS:Rendering:Color,
  {f1218e1a-fdde-4122-be5f-66e15aaddabc}, !- Handle
  LargeHotel Retail,                      !- Name
  171,                                    !- Rendering Red Value
  222,                                    !- Rendering Green Value
  78;                                     !- Rendering Blue Value

OS:SpaceType,
  {babb53cf-1680-47b7-a9a5-2e8245b7f199}, !- Handle
  LargeHotel Storage,                     !- Name
  ,                                       !- Default Construction Set Name
  ,                                       !- Default Schedule Set Name
  {6940653e-582e-443b-ab6c-d28934fae376}, !- Group Rendering Name
  ,                                       !- Design Specification Outdoor Air Object Name
  ,                                       !- Standards Template
  LargeHotel,                             !- Standards Building Type
  Storage;                                !- Standards Space Type

OS:Rendering:Color,
  {6940653e-582e-443b-ab6c-d28934fae376}, !- Handle
  LargeHotel Storage,                     !- Name
  120,                                    !- Rendering Red Value
  149,                                    !- Rendering Green Value
  230;                                    !- Rendering Blue Value

OS:SpaceType,
  {54a7226f-8203-4ca1-9063-9ec4d167c12f}, !- Handle
  FullServiceRestaurant Dining,           !- Name
  ,                                       !- Default Construction Set Name
  ,                                       !- Default Schedule Set Name
  {f371241d-0018-4c2c-bb97-21c34ec19b8b}, !- Group Rendering Name
  ,                                       !- Design Specification Outdoor Air Object Name
  ,                                       !- Standards Template
  FullServiceRestaurant,                  !- Standards Building Type
  Dining;                                 !- Standards Space Type

OS:Rendering:Color,
  {f371241d-0018-4c2c-bb97-21c34ec19b8b}, !- Handle
  FullServiceRestaurant Dining,           !- Name
  31,                                     !- Rendering Red Value
  169,                                    !- Rendering Green Value
  34;                                     !- Rendering Blue Value

OS:SpaceType,
  {ec8928d3-c6e4-4ffb-9d1b-ec8c00f8ea7f}, !- Handle
  FullServiceRestaurant Kitchen,          !- Name
  ,                                       !- Default Construction Set Name
  ,                                       !- Default Schedule Set Name
  {b6159233-c652-44c2-aead-24e6470f5b64}, !- Group Rendering Name
  ,                                       !- Design Specification Outdoor Air Object Name
  ,                                       !- Standards Template
  FullServiceRestaurant,                  !- Standards Building Type
  Kitchen;                                !- Standards Space Type

OS:Rendering:Color,
  {b6159233-c652-44c2-aead-24e6470f5b64}, !- Handle
  FullServiceRestaurant Kitchen,          !- Name
  78,                                     !- Rendering Red Value
  222,                                    !- Rendering Green Value
  133;                                    !- Rendering Blue Value

OS:Building,
  {df78a00f-e260-433a-9b9f-3541dfa0925a}, !- Handle
  90.1-2004|LargeHotel|FullServiceRestaurant, !- Name
  ,                                       !- Building Sector Type
  ,                                       !- North Axis {deg}
  ,                                       !- Nominal Floor to Floor Height {m}
  ,                                       !- Space Type Name
  ,                                       !- Default Construction Set Name
  ;                                       !- Default Schedule Set Name

OS:Site,
  {ad4ed2ce-e74a-4bec-b450-f06aa91374e3}, !- Handle
  Site 1,                                 !- Name
  ,                                       !- Latitude {deg}
  ,                                       !- Longitude {deg}
  ,                                       !- Time Zone {hr}
  ,                                       !- Elevation {m}
  ;                                       !- Terrain

OS:BuildingStory,
  {7e4e1185-78fb-4787-815c-b235f787f1ef}, !- Handle
  Story Ground,                           !- Name
  0,                                      !- Nominal Z Coordinate {m}
  3.048,                                  !- Nominal Floor to Floor Height {m}
  ,                                       !- Default Construction Set Name
  ,                                       !- Default Schedule Set Name
  ;                                       !- Group Rendering Name

OS:Space,
  {1b10b802-b5ee-4319-920e-b61f1456fb8d}, !- Handle
  LargeHotel GuestRoom A end_a - Story Ground, !- Name
  {e628d36c-6f6c-44b0-9654-7a9358c57af7}, !- Space Type Name
  ,                                       !- Default Construction Set Name
  ,                                       !- Default Schedule Set Name
  -0,                                     !- Direction of Relative North {deg}
  -38.4791138151595,                      !- X Origin {m}
  -7.54492427748226,                      !- Y Origin {m}
  0,                                      !- Z Origin {m}
  {7e4e1185-78fb-4787-815c-b235f787f1ef}, !- Building Story Name
  {f1d4cb40-791f-440a-b14b-f57baf8a6c0c}; !- Thermal Zone Name

OS:Surface,
  {7dd4c210-4d7f-459a-a211-710ffc537953}, !- Handle
  Surface 1,                              !- Name
  Floor,                                  !- Surface Type
  ,                                       !- Construction Name
  {1b10b802-b5ee-4319-920e-b61f1456fb8d}, !- Space Name
  Ground,                                 !- Outside Boundary Condition
  ,                                       !- Outside Boundary Condition Object
  NoSun,                                  !- Sun Exposure
  NoWind,                                 !- Wind Exposure
  ,                                       !- View Factor to Ground
  ,                                       !- Number of Vertices
  1.4210854715202e-14, -1.77635683940025e-15, 0, !- X,Y,Z Vertex 1 {m}
  1.4210854715202e-14, 4.572, 0,          !- X,Y,Z Vertex 2 {m}
  4.57200000000002, 4.572, 0,             !- X,Y,Z Vertex 3 {m}
  4.57200000000002, -1.77635683940025e-15, 0; !- X,Y,Z Vertex 4 {m}

OS:Surface,
  {1aec748b-ad1f-4534-a6c3-e8150260a9fc}, !- Handle
  Surface 2,                              !- Name
  Wall,                                   !- Surface Type
  ,                                       !- Construction Name
  {1b10b802-b5ee-4319-920e-b61f1456fb8d}, !- Space Name
  Outdoors,                               !- Outside Boundary Condition
  ,                                       !- Outside Boundary Condition Object
  SunExposed,                             !- Sun Exposure
  WindExposed,                            !- Wind Exposure
  ,                                       !- View Factor to Ground
  ,                                       !- Number of Vertices
  1.4210854715202e-14, 4.572, 3.048,      !- X,Y,Z Vertex 1 {m}
  1.4210854715202e-14, 4.572, 0,          !- X,Y,Z Vertex 2 {m}
  1.4210854715202e-14, -1.77635683940025e-15, 0, !- X,Y,Z Vertex 3 {m}
  1.4210854715202e-14, -1.77635683940025e-15, 3.048; !- X,Y,Z Vertex 4 {m}

OS:Surface,
  {0247167d-02c7-4e1e-b75c-ccb3c4f52bd5}, !- Handle
  Surface 3,                              !- Name
  Wall,                                   !- Surface Type
  ,                                       !- Construction Name
  {1b10b802-b5ee-4319-920e-b61f1456fb8d}, !- Space Name
  Surface,                                !- Outside Boundary Condition
  {97e86bcf-355d-47a0-aaf4-89c838f4d1d3}, !- Outside Boundary Condition Object
  NoSun,                                  !- Sun Exposure
  NoWind,                                 !- Wind Exposure
  ,                                       !- View Factor to Ground
  ,                                       !- Number of Vertices
  4.57200000000002, 4.572, 3.048,         !- X,Y,Z Vertex 1 {m}
  4.57200000000002, 4.572, 0,             !- X,Y,Z Vertex 2 {m}
  1.4210854715202e-14, 4.572, 0,          !- X,Y,Z Vertex 3 {m}
  1.4210854715202e-14, 4.572, 3.048;      !- X,Y,Z Vertex 4 {m}

OS:Surface,
  {84c65f36-c1fc-4049-bda8-015381dde190}, !- Handle
  Surface 4,                              !- Name
  Wall,                                   !- Surface Type
  ,                                       !- Construction Name
  {1b10b802-b5ee-4319-920e-b61f1456fb8d}, !- Space Name
  Surface,                                !- Outside Boundary Condition
  {4660a155-16e7-4684-b87c-f146366650a6}, !- Outside Boundary Condition Object
  NoSun,                                  !- Sun Exposure
  NoWind,                                 !- Wind Exposure
  ,                                       !- View Factor to Ground
  ,                                       !- Number of Vertices
  4.57200000000002, -1.77635683940025e-15, 3.048, !- X,Y,Z Vertex 1 {m}
  4.57200000000002, -1.77635683940025e-15, 0, !- X,Y,Z Vertex 2 {m}
  4.57200000000002, 4.572, 0,             !- X,Y,Z Vertex 3 {m}
  4.57200000000002, 4.572, 3.048;         !- X,Y,Z Vertex 4 {m}

OS:Surface,
  {7e8d7024-1e14-4ca9-88bb-c4fa4d00a849}, !- Handle
  Surface 5,                              !- Name
  Wall,                                   !- Surface Type
  ,                                       !- Construction Name
  {1b10b802-b5ee-4319-920e-b61f1456fb8d}, !- Space Name
  Outdoors,                               !- Outside Boundary Condition
  ,                                       !- Outside Boundary Condition Object
  SunExposed,                             !- Sun Exposure
  WindExposed,                            !- Wind Exposure
  ,                                       !- View Factor to Ground
  ,                                       !- Number of Vertices
  1.4210854715202e-14, -1.77635683940025e-15, 3.048, !- X,Y,Z Vertex 1 {m}
  1.4210854715202e-14, -1.77635683940025e-15, 0, !- X,Y,Z Vertex 2 {m}
  4.57200000000002, -1.77635683940025e-15, 0, !- X,Y,Z Vertex 3 {m}
  4.57200000000002, -1.77635683940025e-15, 3.048; !- X,Y,Z Vertex 4 {m}

OS:Surface,
  {22cd1ab1-a3dd-4183-982a-0484ba09c89d}, !- Handle
  Surface 6,                              !- Name
  RoofCeiling,                            !- Surface Type
  ,                                       !- Construction Name
  {1b10b802-b5ee-4319-920e-b61f1456fb8d}, !- Space Name
  Adiabatic,                              !- Outside Boundary Condition
  ,                                       !- Outside Boundary Condition Object
  NoSun,                                  !- Sun Exposure
  NoWind,                                 !- Wind Exposure
  ,                                       !- View Factor to Ground
  ,                                       !- Number of Vertices
  4.57200000000002, -1.77635683940025e-15, 3.048, !- X,Y,Z Vertex 1 {m}
  4.57200000000002, 4.572, 3.048,         !- X,Y,Z Vertex 2 {m}
  1.4210854715202e-14, 4.572, 3.048,      !- X,Y,Z Vertex 3 {m}
  1.4210854715202e-14, -1.77635683940025e-15, 3.048; !- X,Y,Z Vertex 4 {m}

OS:ThermalZone,
  {f1d4cb40-791f-440a-b14b-f57baf8a6c0c}, !- Handle
  Zone LargeHotel GuestRoom A end_a - Story Ground, !- Name
  1,                                      !- Multiplier
  ,                                       !- Ceiling Height {m}
  ,                                       !- Volume {m3}
  ,                                       !- Floor Area {m2}
  ,                                       !- Zone Inside Convection Algorithm
  ,                                       !- Zone Outside Convection Algorithm
  ,                                       !- Zone Conditioning Equipment List Name
  {cda40f60-ae92-4a90-992e-d32716c9d875}, !- Zone Air Inlet Port List
  {5c11d83b-0d56-41f2-96fc-05c26c13d6cf}, !- Zone Air Exhaust Port List
  {ba4b4654-5129-4c82-87b1-12a116cc50b3}, !- Zone Air Node Name
  {f92b4b59-4262-47a9-987c-93bc254391f0}, !- Zone Return Air Port List
  ,                                       !- Primary Daylighting Control Name
  ,                                       !- Fraction of Zone Controlled by Primary Daylighting Control
  ,                                       !- Secondary Daylighting Control Name
  ,                                       !- Fraction of Zone Controlled by Secondary Daylighting Control
  ,                                       !- Illuminance Map Name
  ,                                       !- Group Rendering Name
  ,                                       !- Thermostat Name
  No;                                     !- Use Ideal Air Loads

OS:Node,
  {612e5037-15a8-440a-817e-23d0d59976a3}, !- Handle
  Node 1,                                 !- Name
  {ba4b4654-5129-4c82-87b1-12a116cc50b3}, !- Inlet Port
  ;                                       !- Outlet Port

OS:Connection,
  {ba4b4654-5129-4c82-87b1-12a116cc50b3}, !- Handle
  {e3cb2657-f4e5-44af-80a7-574fa0b681b2}, !- Name
  {f1d4cb40-791f-440a-b14b-f57baf8a6c0c}, !- Source Object
  11,                                     !- Outlet Port
  {612e5037-15a8-440a-817e-23d0d59976a3}, !- Target Object
  2;                                      !- Inlet Port

OS:PortList,
  {cda40f60-ae92-4a90-992e-d32716c9d875}, !- Handle
  {0fe981e9-be58-4da1-ab4d-4b782737f55a}, !- Name
  {f1d4cb40-791f-440a-b14b-f57baf8a6c0c}; !- HVAC Component

OS:PortList,
  {5c11d83b-0d56-41f2-96fc-05c26c13d6cf}, !- Handle
  {3024f963-eb55-4b74-a633-7dd4a5348639}, !- Name
  {f1d4cb40-791f-440a-b14b-f57baf8a6c0c}; !- HVAC Component

OS:PortList,
  {f92b4b59-4262-47a9-987c-93bc254391f0}, !- Handle
  {cae46029-fac7-4abd-96e2-442585cbfcaf}, !- Name
  {f1d4cb40-791f-440a-b14b-f57baf8a6c0c}; !- HVAC Component

OS:Sizing:Zone,
  {fe3bcafd-7f67-44b5-a0ed-9bb836cc2958}, !- Handle
  {f1d4cb40-791f-440a-b14b-f57baf8a6c0c}, !- Zone or ZoneList Name
  SupplyAirTemperature,                   !- Zone Cooling Design Supply Air Temperature Input Method
  14,                                     !- Zone Cooling Design Supply Air Temperature {C}
  11.11,                                  !- Zone Cooling Design Supply Air Temperature Difference {deltaC}
  SupplyAirTemperature,                   !- Zone Heating Design Supply Air Temperature Input Method
  40,                                     !- Zone Heating Design Supply Air Temperature {C}
  11.11,                                  !- Zone Heating Design Supply Air Temperature Difference {deltaC}
  0.0085,                                 !- Zone Cooling Design Supply Air Humidity Ratio {kg-H2O/kg-air}
  0.008,                                  !- Zone Heating Design Supply Air Humidity Ratio {kg-H2O/kg-air}
  ,                                       !- Zone Heating Sizing Factor
  ,                                       !- Zone Cooling Sizing Factor
  DesignDay,                              !- Cooling Design Air Flow Method
  ,                                       !- Cooling Design Air Flow Rate {m3/s}
  ,                                       !- Cooling Minimum Air Flow per Zone Floor Area {m3/s-m2}
  ,                                       !- Cooling Minimum Air Flow {m3/s}
  ,                                       !- Cooling Minimum Air Flow Fraction
  DesignDay,                              !- Heating Design Air Flow Method
  ,                                       !- Heating Design Air Flow Rate {m3/s}
  ,                                       !- Heating Maximum Air Flow per Zone Floor Area {m3/s-m2}
  ,                                       !- Heating Maximum Air Flow {m3/s}
  ,                                       !- Heating Maximum Air Flow Fraction
  ,                                       !- Design Zone Air Distribution Effectiveness in Cooling Mode
  ,                                       !- Design Zone Air Distribution Effectiveness in Heating Mode
  No,                                     !- Account for Dedicated Outdoor Air System
  NeutralSupplyAir,                       !- Dedicated Outdoor Air System Control Strategy
  autosize,                               !- Dedicated Outdoor Air Low Setpoint Temperature for Design {C}
  autosize;                               !- Dedicated Outdoor Air High Setpoint Temperature for Design {C}

OS:ZoneHVAC:EquipmentList,
  {06ce981a-5e87-470a-a94b-0fa9dcb88789}, !- Handle
  Zone HVAC Equipment List 1,             !- Name
  {f1d4cb40-791f-440a-b14b-f57baf8a6c0c}; !- Thermal Zone

OS:Space,
  {5bc5d91a-a806-4901-828f-8df33751ae96}, !- Handle
  LargeHotel GuestRoom B end_a - Story Ground, !- Name
  {e628d36c-6f6c-44b0-9654-7a9358c57af7}, !- Space Type Name
  ,                                       !- Default Construction Set Name
  ,                                       !- Default Schedule Set Name
  -0,                                     !- Direction of Relative North {deg}
  -38.4791138151595,                      !- X Origin {m}
  -2.97292427748226,                      !- Y Origin {m}
  0,                                      !- Z Origin {m}
  {7e4e1185-78fb-4787-815c-b235f787f1ef}, !- Building Story Name
  {78d97f8e-7e65-42d2-ac59-65b63e1562e8}; !- Thermal Zone Name

OS:Surface,
  {f6ac5d9c-763b-4d61-bd4b-5ab1a29f03ea}, !- Handle
  Surface 7,                              !- Name
  Floor,                                  !- Surface Type
  ,                                       !- Construction Name
  {5bc5d91a-a806-4901-828f-8df33751ae96}, !- Space Name
  Ground,                                 !- Outside Boundary Condition
  ,                                       !- Outside Boundary Condition Object
  NoSun,                                  !- Sun Exposure
  NoWind,                                 !- Wind Exposure
  ,                                       !- View Factor to Ground
  ,                                       !- Number of Vertices
  1.4210854715202e-14, -1.77635683940025e-15, 0, !- X,Y,Z Vertex 1 {m}
  1.4210854715202e-14, 5.94584855496452, 0, !- X,Y,Z Vertex 2 {m}
  4.57200000000002, 5.94584855496452, 0,  !- X,Y,Z Vertex 3 {m}
  4.57200000000002, -1.77635683940025e-15, 0; !- X,Y,Z Vertex 4 {m}

OS:Surface,
  {3ca87ee2-e9d0-4e51-a599-8e67cb34521f}, !- Handle
  Surface 8,                              !- Name
  Wall,                                   !- Surface Type
  ,                                       !- Construction Name
  {5bc5d91a-a806-4901-828f-8df33751ae96}, !- Space Name
  Outdoors,                               !- Outside Boundary Condition
  ,                                       !- Outside Boundary Condition Object
  SunExposed,                             !- Sun Exposure
  WindExposed,                            !- Wind Exposure
  ,                                       !- View Factor to Ground
  ,                                       !- Number of Vertices
  1.4210854715202e-14, 5.94584855496452, 3.048, !- X,Y,Z Vertex 1 {m}
  1.4210854715202e-14, 5.94584855496452, 0, !- X,Y,Z Vertex 2 {m}
  1.4210854715202e-14, -1.77635683940025e-15, 0, !- X,Y,Z Vertex 3 {m}
  1.4210854715202e-14, -1.77635683940025e-15, 3.048; !- X,Y,Z Vertex 4 {m}

OS:Surface,
  {da508a1a-2204-4c88-8323-69d203a5bc32}, !- Handle
  Surface 9,                              !- Name
  Wall,                                   !- Surface Type
  ,                                       !- Construction Name
  {5bc5d91a-a806-4901-828f-8df33751ae96}, !- Space Name
  Surface,                                !- Outside Boundary Condition
  {a52a6a94-22b1-46b2-99cc-df2016a8cfc7}, !- Outside Boundary Condition Object
  NoSun,                                  !- Sun Exposure
  NoWind,                                 !- Wind Exposure
  ,                                       !- View Factor to Ground
  ,                                       !- Number of Vertices
  4.57200000000002, 5.94584855496452, 3.048, !- X,Y,Z Vertex 1 {m}
  4.57200000000002, 5.94584855496452, 0,  !- X,Y,Z Vertex 2 {m}
  1.4210854715202e-14, 5.94584855496452, 0, !- X,Y,Z Vertex 3 {m}
  1.4210854715202e-14, 5.94584855496452, 3.048; !- X,Y,Z Vertex 4 {m}

OS:Surface,
  {b98c7e13-13fa-42b7-9ba0-62662f5a3181}, !- Handle
  Surface 10,                             !- Name
  Wall,                                   !- Surface Type
  ,                                       !- Construction Name
  {5bc5d91a-a806-4901-828f-8df33751ae96}, !- Space Name
  Surface,                                !- Outside Boundary Condition
  {86f559d5-2ad2-48ca-9542-2fd4d7838c59}, !- Outside Boundary Condition Object
  NoSun,                                  !- Sun Exposure
  NoWind,                                 !- Wind Exposure
  ,                                       !- View Factor to Ground
  ,                                       !- Number of Vertices
  4.57200000000002, -1.77635683940025e-15, 3.048, !- X,Y,Z Vertex 1 {m}
  4.57200000000002, -1.77635683940025e-15, 0, !- X,Y,Z Vertex 2 {m}
  4.57200000000002, 5.94584855496452, 0,  !- X,Y,Z Vertex 3 {m}
  4.57200000000002, 5.94584855496452, 3.048; !- X,Y,Z Vertex 4 {m}

OS:Surface,
  {97e86bcf-355d-47a0-aaf4-89c838f4d1d3}, !- Handle
  Surface 11,                             !- Name
  Wall,                                   !- Surface Type
  ,                                       !- Construction Name
  {5bc5d91a-a806-4901-828f-8df33751ae96}, !- Space Name
  Surface,                                !- Outside Boundary Condition
  {0247167d-02c7-4e1e-b75c-ccb3c4f52bd5}, !- Outside Boundary Condition Object
  NoSun,                                  !- Sun Exposure
  NoWind,                                 !- Wind Exposure
  ,                                       !- View Factor to Ground
  ,                                       !- Number of Vertices
  1.4210854715202e-14, -1.77635683940025e-15, 3.048, !- X,Y,Z Vertex 1 {m}