
OS:Version,
  {9048540b-5831-4603-a224-5fde7503f3cc}, !- Handle
  2.8.0;                                  !- Version Identifier

OS:SpaceType,
  {567fc4c3-0a1e-4593-9882-02418d2d9936}, !- Handle
  LargeHotel Banquet,                     !- Name
  ,                                       !- Default Construction Set Name
  ,                                       !- Default Schedule Set Name
  {9d72bcc6-cdee-45e7-a309-e041e3e83a75}, !- Group Rendering Name
  ,                                       !- Design Specification Outdoor Air Object Name
  ,                                       !- Standards Template
  LargeHotel,                             !- Standards Building Type
  Banquet;                                !- Standards Space Type

OS:Rendering:Color,
  {9d72bcc6-cdee-45e7-a309-e041e3e83a75}, !- Handle
  LargeHotel Banquet,                     !- Name
  230,                                    !- Rendering Red Value
  196,                                    !- Rendering Green Value
  120;                                    !- Rendering Blue Value

OS:SpaceType,
  {316ab097-6100-46f6-9d49-57bf2a3af644}, !- Handle
  LargeHotel Cafe,                        !- Name
  ,                                       !- Default Construction Set Name
  ,                                       !- Default Schedule Set Name
  {8de1894f-b8cd-4457-bb5d-21582061c272}, !- Group Rendering Name
  ,                                       !- Design Specification Outdoor Air Object Name
  ,                                       !- Standards Template
  LargeHotel,                             !- Standards Building Type
  Cafe;                                   !- Standards Space Type

OS:Rendering:Color,
  {8de1894f-b8cd-4457-bb5d-21582061c272}, !- Handle
  LargeHotel Cafe,                        !- Name
  31,                                     !- Rendering Red Value
  169,                                    !- Rendering Green Value
  34;                                     !- Rendering Blue Value

OS:SpaceType,
  {801b0c8d-0ecb-4bc1-94bf-74c882b670df}, !- Handle
  LargeHotel Corridor,                    !- Name
  ,                                       !- Default Construction Set Name
  ,                                       !- Default Schedule Set Name
  {38263c5a-c06d-407a-aea5-fa48a353dc3f}, !- Group Rendering Name
  ,                                       !- Design Specification Outdoor Air Object Name
  ,                                       !- Standards Template
  LargeHotel,                             !- Standards Building Type
  Corridor;                               !- Standards Space Type

OS:Rendering:Color,
  {38263c5a-c06d-407a-aea5-fa48a353dc3f}, !- Handle
  LargeHotel Corridor,                    !- Name
  169,                                    !- Rendering Red Value
  31,                                     !- Rendering Green Value
  31;                                     !- Rendering Blue Value

OS:SpaceType,
  {1cdec49b-1553-4578-aa44-0c4b6bf3136a}, !- Handle
  LargeHotel GuestRoom,                   !- Name
  ,                                       !- Default Construction Set Name
  ,                                       !- Default Schedule Set Name
  {f0546fbe-26f9-4420-8736-e517d4474e19}, !- Group Rendering Name
  ,                                       !- Design Specification Outdoor Air Object Name
  ,                                       !- Standards Template
  LargeHotel,                             !- Standards Building Type
  GuestRoom;                              !- Standards Space Type

OS:Rendering:Color,
  {f0546fbe-26f9-4420-8736-e517d4474e19}, !- Handle
  LargeHotel GuestRoom,                   !- Name
  78,                                     !- Rendering Red Value
  167,                                    !- Rendering Green Value
  222;                                    !- Rendering Blue Value

OS:SpaceType,
  {b8545861-8401-402c-b49f-ed44164e841a}, !- Handle
  LargeHotel Kitchen,                     !- Name
  ,                                       !- Default Construction Set Name
  ,                                       !- Default Schedule Set Name
  {5b00974c-aa42-46ea-9394-b84bf1972163}, !- Group Rendering Name
  ,                                       !- Design Specification Outdoor Air Object Name
  ,                                       !- Standards Template
  LargeHotel,                             !- Standards Building Type
  Kitchen;                                !- Standards Space Type

OS:Rendering:Color,
  {5b00974c-aa42-46ea-9394-b84bf1972163}, !- Handle
  LargeHotel Kitchen,                     !- Name
  78,                                     !- Rendering Red Value
  222,                                    !- Rendering Green Value
  133;                                    !- Rendering Blue Value

OS:SpaceType,
  {dbf72ef5-e27d-4222-915e-f73f0e0ac690}, !- Handle
  LargeHotel Laundry,                     !- Name
  ,                                       !- Default Construction Set Name
  ,                                       !- Default Schedule Set Name
  {3b17835c-c6d8-43d2-a7ad-82151a68c556}, !- Group Rendering Name
  ,                                       !- Design Specification Outdoor Air Object Name
  ,                                       !- Standards Template
  LargeHotel,                             !- Standards Building Type
  Laundry;                                !- Standards Space Type

OS:Rendering:Color,
  {3b17835c-c6d8-43d2-a7ad-82151a68c556}, !- Handle
  LargeHotel Laundry,                     !- Name
  120,                                    !- Rendering Red Value
  149,                                    !- Rendering Green Value
  230;                                    !- Rendering Blue Value

OS:SpaceType,
  {1601e598-ea16-4b52-9bd0-9c8c32e606cf}, !- Handle
  LargeHotel Lobby,                       !- Name
  ,                                       !- Default Construction Set Name
  ,                                       !- Default Schedule Set Name
  {02002351-7c74-45bc-bd9d-50d5120bc97c}, !- Group Rendering Name
  ,                                       !- Design Specification Outdoor Air Object Name
  ,                                       !- Standards Template
  LargeHotel,                             !- Standards Building Type
  Lobby;                                  !- Standards Space Type

OS:Rendering:Color,
  {02002351-7c74-45bc-bd9d-50d5120bc97c}, !- Handle
  LargeHotel Lobby,                       !- Name
  230,                                    !- Rendering Red Value
  157,                                    !- Rendering Green Value
  120;                                    !- Rendering Blue Value

OS:SpaceType,
  {1c6ff055-d505-4583-b734-502cbb1ec4f9}, !- Handle
  LargeHotel Mechanical,                  !- Name
  ,                                       !- Default Construction Set Name
  ,                                       !- Default Schedule Set Name
  {d169d9c7-07bf-4352-b8b0-067217bf81be}, !- Group Rendering Name
  ,                                       !- Design Specification Outdoor Air Object Name
  ,                                       !- Standards Template
  LargeHotel,                             !- Standards Building Type
  Mechanical;                             !- Standards Space Type

OS:Rendering:Color,
  {d169d9c7-07bf-4352-b8b0-067217bf81be}, !- Handle
  LargeHotel Mechanical,                  !- Name
  41,                                     !- Rendering Red Value
  31,                                     !- Rendering Green Value
  169;                                    !- Rendering Blue Value

OS:SpaceType,
  {585c71f2-bb06-48ea-867e-5614e92bd6ce}, !- Handle
  LargeHotel Retail,                      !- Name
  ,                                       !- Default Construction Set Name
  ,                                       !- Default Schedule Set Name
  {e0040045-466d-4027-a878-df943131c67b}, !- Group Rendering Name
  ,                                       !- Design Specification Outdoor Air Object Name
  ,                                       !- Standards Template
  LargeHotel,                             !- Standards Building Type
  Retail;                                 !- Standards Space Type

OS:Rendering:Color,
  {e0040045-466d-4027-a878-df943131c67b}, !- Handle
  LargeHotel Retail,                      !- Name
  171,                                    !- Rendering Red Value
  222,                                    !- Rendering Green Value
  78;                                     !- Rendering Blue Value

OS:SpaceType,
  {ee4d296e-a159-4f23-90f3-2d43a5b3aec9}, !- Handle
  LargeHotel Storage,                     !- Name
  ,                                       !- Default Construction Set Name
  ,                                       !- Default Schedule Set Name
  {5d397a58-febd-4ebc-a0a7-4914b9dda927}, !- Group Rendering Name
  ,                                       !- Design Specification Outdoor Air Object Name
  ,                                       !- Standards Template
  LargeHotel,                             !- Standards Building Type
  Storage;                                !- Standards Space Type

OS:Rendering:Color,
  {5d397a58-febd-4ebc-a0a7-4914b9dda927}, !- Handle
  LargeHotel Storage,                     !- Name
  120,                                    !- Rendering Red Value
  149,                                    !- Rendering Green Value
  230;                                    !- Rendering Blue Value

OS:SpaceType,
  {dd4f513a-38ad-4169-8cfb-69a0fa8890f4}, !- Handle
  FullServiceRestaurant Dining,           !- Name
  ,                                       !- Default Construction Set Name
  ,                                       !- Default Schedule Set Name
  {d1a71f98-6196-4be9-a154-bf37b5bd268d}, !- Group Rendering Name
  ,                                       !- Design Specification Outdoor Air Object Name
  ,                                       !- Standards Template
  FullServiceRestaurant,                  !- Standards Building Type
  Dining;                                 !- Standards Space Type

OS:Rendering:Color,
  {d1a71f98-6196-4be9-a154-bf37b5bd268d}, !- Handle
  FullServiceRestaurant Dining,           !- Name
  31,                                     !- Rendering Red Value
  169,                                    !- Rendering Green Value
  34;                                     !- Rendering Blue Value

OS:SpaceType,
  {9407ed80-40e8-4893-9029-024c34db3271}, !- Handle
  FullServiceRestaurant Kitchen,          !- Name
  ,                                       !- Default Construction Set Name
  ,                                       !- Default Schedule Set Name
  {65debd4c-5142-426f-a86f-3f70ad9012b7}, !- Group Rendering Name
  ,                                       !- Design Specification Outdoor Air Object Name
  ,                                       !- Standards Template
  FullServiceRestaurant,                  !- Standards Building Type
  Kitchen;                                !- Standards Space Type

OS:Rendering:Color,
  {65debd4c-5142-426f-a86f-3f70ad9012b7}, !- Handle
  FullServiceRestaurant Kitchen,          !- Name
  78,                                     !- Rendering Red Value
  222,                                    !- Rendering Green Value
  133;                                    !- Rendering Blue Value

OS:Building,
  {b3e78a43-7288-45a6-8304-289f7a687be2}, !- Handle
  90.1-2004|LargeHotel|FullServiceRestaurant, !- Name
  ,                                       !- Building Sector Type
  ,                                       !- North Axis {deg}
  ,                                       !- Nominal Floor to Floor Height {m}
  ,                                       !- Space Type Name
  ,                                       !- Default Construction Set Name
  ;                                       !- Default Schedule Set Name

OS:Site,
  {f0d90fa8-127e-498c-be3f-c8844d5db215}, !- Handle
  Site 1,                                 !- Name
  ,                                       !- Latitude {deg}
  ,                                       !- Longitude {deg}
  ,                                       !- Time Zone {hr}
  ,                                       !- Elevation {m}
  ;                                       !- Terrain

OS:BuildingStory,
  {34d29b45-5381-4d06-8faf-ca559fc2347e}, !- Handle
  Story Ground,                           !- Name
  0,                                      !- Nominal Z Coordinate {m}
  3.048,                                  !- Nominal Floor to Floor Height {m}
  ,                                       !- Default Construction Set Name
  ,                                       !- Default Schedule Set Name
  ;                                       !- Group Rendering Name

OS:Space,
  {c5534c0f-908f-4489-8000-d1f30e0a50ae}, !- Handle
  LargeHotel Lobby A end_a - Story Ground, !- Name
  {1601e598-ea16-4b52-9bd0-9c8c32e606cf}, !- Space Type Name
  ,                                       !- Default Construction Set Name
  ,                                       !- Default Schedule Set Name
  -0,                                     !- Direction of Relative North {deg}
  -62.8361297344131,                      !- X Origin {m}
  -12.3208097518457,                      !- Y Origin {m}
  0,                                      !- Z Origin {m}
  {34d29b45-5381-4d06-8faf-ca559fc2347e}, !- Building Story Name
  {133bfc94-39b4-448c-a760-b1d8848a6f69}; !- Thermal Zone Name

OS:Surface,
  {64d92d81-6983-4f15-9101-f9b67e46931c}, !- Handle
  Surface 1,                              !- Name
  Floor,                                  !- Surface Type
  ,                                       !- Construction Name
  {c5534c0f-908f-4489-8000-d1f30e0a50ae}, !- Space Name
  Ground,                                 !- Outside Boundary Condition
  ,                                       !- Outside Boundary Condition Object
  NoSun,                                  !- Sun Exposure
  NoWind,                                 !- Wind Exposure
  ,                                       !- View Factor to Ground
  ,                                       !- Number of Vertices
  4.9737991503207e-14, 1.59872115546023e-14, 0, !- X,Y,Z Vertex 1 {m}
  4.9737991503207e-14, 4.57199999999999, 0, !- X,Y,Z Vertex 2 {m}
  4.57200000000005, 4.57199999999999, 0,  !- X,Y,Z Vertex 3 {m}
  4.57200000000005, 1.59872115546023e-14, 0; !- X,Y,Z Vertex 4 {m}

OS:Surface,
  {ed6c886d-c0d8-4f35-b33e-3dd9dcf67bd9}, !- Handle
  Surface 2,                              !- Name
  Wall,                                   !- Surface Type
  ,                                       !- Construction Name
  {c5534c0f-908f-4489-8000-d1f30e0a50ae}, !- Space Name
  Outdoors,                               !- Outside Boundary Condition
  ,                                       !- Outside Boundary Condition Object
  SunExposed,                             !- Sun Exposure
  WindExposed,                            !- Wind Exposure
  ,                                       !- View Factor to Ground
  ,                                       !- Number of Vertices
  4.9737991503207e-14, 4.57199999999999, 3.048, !- X,Y,Z Vertex 1 {m}
  4.9737991503207e-14, 4.57199999999999, 0, !- X,Y,Z Vertex 2 {m}
  4.9737991503207e-14, 1.59872115546023e-14, 0, !- X,Y,Z Vertex 3 {m}
  4.9737991503207e-14, 1.59872115546023e-14, 3.048; !- X,Y,Z Vertex 4 {m}

OS:Surface,
  {909e6246-99a5-4e93-af13-2dc2363b4a7a}, !- Handle
  Surface 3,                              !- Name
  Wall,                                   !- Surface Type
  ,                                       !- Construction Name
  {c5534c0f-908f-4489-8000-d1f30e0a50ae}, !- Space Name
  Surface,                                !- Outside Boundary Condition
  {06bdbe1e-433b-436e-8dcd-3af8b4ebe1d4}, !- Outside Boundary Condition Object
  NoSun,                                  !- Sun Exposure
  NoWind,                                 !- Wind Exposure
  ,                                       !- View Factor to Ground
  ,                                       !- Number of Vertices
  4.57200000000005, 4.57199999999999, 3.048, !- X,Y,Z Vertex 1 {m}
  4.57200000000005, 4.57199999999999, 0,  !- X,Y,Z Vertex 2 {m}
  4.9737991503207e-14, 4.57199999999999, 0, !- X,Y,Z Vertex 3 {m}
  4.9737991503207e-14, 4.57199999999999, 3.048; !- X,Y,Z Vertex 4 {m}

OS:Surface,
  {53ea11c6-bfd0-4afd-9f0f-17f089937052}, !- Handle
  Surface 4,                              !- Name
  Wall,                                   !- Surface Type
  ,                                       !- Construction Name
  {c5534c0f-908f-4489-8000-d1f30e0a50ae}, !- Space Name
  Surface,                                !- Outside Boundary Condition
  {693ff7a5-4bde-454c-b849-cd1d6ef8fc76}, !- Outside Boundary Condition Object
  NoSun,                                  !- Sun Exposure
  NoWind,                                 !- Wind Exposure
  ,                                       !- View Factor to Ground
  ,                                       !- Number of Vertices
  4.57200000000005, 1.59872115546023e-14, 3.048, !- X,Y,Z Vertex 1 {m}
  4.57200000000005, 1.59872115546023e-14, 0, !- X,Y,Z Vertex 2 {m}
  4.57200000000005, 4.57199999999999, 0,  !- X,Y,Z Vertex 3 {m}
  4.57200000000005, 4.57199999999999, 3.048; !- X,Y,Z Vertex 4 {m}

OS:Surface,
  {406987ea-1e8c-48fc-937a-5fe9747255fe}, !- Handle
  Surface 5,                              !- Name
  Wall,                                   !- Surface Type
  ,                                       !- Construction Name
  {c5534c0f-908f-4489-8000-d1f30e0a50ae}, !- Space Name
  Outdoors,                               !- Outside Boundary Condition
  ,                                       !- Outside Boundary Condition Object
  SunExposed,                             !- Sun Exposure
  WindExposed,                            !- Wind Exposure
  ,                                       !- View Factor to Ground
  ,                                       !- Number of Vertices
  4.9737991503207e-14, 1.59872115546023e-14, 3.048, !- X,Y,Z Vertex 1 {m}
  4.9737991503207e-14, 1.59872115546023e-14, 0, !- X,Y,Z Vertex 2 {m}
  4.57200000000005, 1.59872115546023e-14, 0, !- X,Y,Z Vertex 3 {m}
  4.57200000000005, 1.59872115546023e-14, 3.048; !- X,Y,Z Vertex 4 {m}

OS:Surface,
  {76edbd89-3399-4a0a-acb3-493edfe8e385}, !- Handle
  Surface 6,                              !- Name
  RoofCeiling,                            !- Surface Type
  ,                                       !- Construction Name
  {c5534c0f-908f-4489-8000-d1f30e0a50ae}, !- Space Name
  Surface,                                !- Outside Boundary Condition
  {18a49e97-93c8-4160-a2c7-200f8db50fa5}, !- Outside Boundary Condition Object
  NoSun,                                  !- Sun Exposure
  NoWind,                                 !- Wind Exposure
  ,                                       !- View Factor to Ground
  ,                                       !- Number of Vertices
  4.57200000000005, 1.59872115546023e-14, 3.048, !- X,Y,Z Vertex 1 {m}
  4.57200000000005, 4.57199999999999, 3.048, !- X,Y,Z Vertex 2 {m}
  4.9737991503207e-14, 4.57199999999999, 3.048, !- X,Y,Z Vertex 3 {m}
  4.9737991503207e-14, 1.59872115546023e-14, 3.048; !- X,Y,Z Vertex 4 {m}

OS:ThermalZone,
  {133bfc94-39b4-448c-a760-b1d8848a6f69}, !- Handle
  Zone LargeHotel Lobby A end_a - Story Ground, !- Name
  1,                                      !- Multiplier
  ,                                       !- Ceiling Height {m}
  ,                                       !- Volume {m3}
  ,                                       !- Floor Area {m2}
  ,                                       !- Zone Inside Convection Algorithm
  ,                                       !- Zone Outside Convection Algorithm
  ,                                       !- Zone Conditioning Equipment List Name
  {abc21f20-d105-4b85-ac00-836567db9954}, !- Zone Air Inlet Port List
  {ba6bee1c-69c1-4660-9c1b-9f68f9b7bb2f}, !- Zone Air Exhaust Port List
  {a2d99896-d2aa-4303-bc6d-194ac819e982}, !- Zone Air Node Name
  {f358e629-4bbb-4bb6-bff6-7408eb92996b}, !- Zone Return Air Port List
  ,                                       !- Primary Daylighting Control Name
  ,                                       !- Fraction of Zone Controlled by Primary Daylighting Control
  ,                                       !- Secondary Daylighting Control Name
  ,                                       !- Fraction of Zone Controlled by Secondary Daylighting Control
  ,                                       !- Illuminance Map Name
  ,                                       !- Group Rendering Name
  ,                                       !- Thermostat Name
  No;                                     !- Use Ideal Air Loads

OS:Node,
  {8d1839e6-fb8c-439a-89d6-0d639881b665}, !- Handle
  Node 1,                                 !- Name
  {a2d99896-d2aa-4303-bc6d-194ac819e982}, !- Inlet Port
  ;                                       !- Outlet Port

OS:Connection,
  {a2d99896-d2aa-4303-bc6d-194ac819e982}, !- Handle
  {8f0623fd-4869-45aa-88de-a93f3dda9e06}, !- Name
  {133bfc94-39b4-448c-a760-b1d8848a6f69}, !- Source Object
  11,                                     !- Outlet Port
  {8d1839e6-fb8c-439a-89d6-0d639881b665}, !- Target Object
  2;                                      !- Inlet Port

OS:PortList,
  {abc21f20-d105-4b85-ac00-836567db9954}, !- Handle
  {29d7dd88-970b-4ddd-8947-55923178ce42}, !- Name
  {133bfc94-39b4-448c-a760-b1d8848a6f69}; !- HVAC Component

OS:PortList,
  {ba6bee1c-69c1-4660-9c1b-9f68f9b7bb2f}, !- Handle
  {1ead021e-8e7a-40f4-a8ed-cea300e41db4}, !- Name
  {133bfc94-39b4-448c-a760-b1d8848a6f69}; !- HVAC Component

OS:PortList,
  {f358e629-4bbb-4bb6-bff6-7408eb92996b}, !- Handle
  {7efea3b4-21f8-443d-94e8-62bed977a4dc}, !- Name
  {133bfc94-39b4-448c-a760-b1d8848a6f69}; !- HVAC Component

OS:Sizing:Zone,
  {8cf0101e-110e-40d3-89df-a13c75b18317}, !- Handle
  {133bfc94-39b4-448c-a760-b1d8848a6f69}, !- Zone or ZoneList Name
  SupplyAirTemperature,                   !- Zone Cooling Design Supply Air Temperature Input Method
  14,                                     !- Zone Cooling Design Supply Air Temperature {C}
  11.11,                                  !- Zone Cooling Design Supply Air Temperature Difference {deltaC}
  SupplyAirTemperature,                   !- Zone Heating Design Supply Air Temperature Input Method
  40,                                     !- Zone Heating Design Supply Air Temperature {C}
  11.11,                                  !- Zone Heating Design Supply Air Temperature Difference {deltaC}
  0.0085,                                 !- Zone Cooling Design Supply Air Humidity Ratio {kg-H2O/kg-air}
  0.008,                                  !- Zone Heating Design Supply Air Humidity Ratio {kg-H2O/kg-air}
  ,                                       !- Zone Heating Sizing Factor
  ,                                       !- Zone Cooling Sizing Factor
  DesignDay,                              !- Cooling Design Air Flow Method
  ,                                       !- Cooling Design Air Flow Rate {m3/s}
  ,                                       !- Cooling Minimum Air Flow per Zone Floor Area {m3/s-m2}
  ,                                       !- Cooling Minimum Air Flow {m3/s}
  ,                                       !- Cooling Minimum Air Flow Fraction
  DesignDay,                              !- Heating Design Air Flow Method
  ,                                       !- Heating Design Air Flow Rate {m3/s}
  ,                                       !- Heating Maximum Air Flow per Zone Floor Area {m3/s-m2}
  ,                                       !- Heating Maximum Air Flow {m3/s}
  ,                                       !- Heating Maximum Air Flow Fraction
  ,                                       !- Design Zone Air Distribution Effectiveness in Cooling Mode
  ,                                       !- Design Zone Air Distribution Effectiveness in Heating Mode
  No,                                     !- Account for Dedicated Outdoor Air System
  NeutralSupplyAir,                       !- Dedicated Outdoor Air System Control Strategy
  autosize,                               !- Dedicated Outdoor Air Low Setpoint Temperature for Design {C}
  autosize;                               !- Dedicated Outdoor Air High Setpoint Temperature for Design {C}

OS:ZoneHVAC:EquipmentList,
  {9fef5b36-09c1-451d-bd4a-0bdfb92b0682}, !- Handle
  Zone HVAC Equipment List 1,             !- Name
  {133bfc94-39b4-448c-a760-b1d8848a6f69}; !- Thermal Zone

OS:Space,
  {069d832f-246f-42b1-9d70-98607be561c7}, !- Handle
  LargeHotel Lobby B end_a - Story Ground, !- Name
  {1601e598-ea16-4b52-9bd0-9c8c32e606cf}, !- Space Type Name
  ,                                       !- Default Construction Set Name
  ,                                       !- Default Schedule Set Name
  -0,                                     !- Direction of Relative North {deg}
  -62.8361297344131,                      !- X Origin {m}
  -7.74880975184572,                      !- Y Origin {m}
  0,                                      !- Z Origin {m}
  {34d29b45-5381-4d06-8faf-ca559fc2347e}, !- Building Story Name
  {565e84ac-3b6f-4cbc-a5d8-48985ea56143}; !- Thermal Zone Name

OS:Surface,
  {067cb915-089c-4495-9380-1e7bcbb8e968}, !- Handle
  Surface 7,                              !- Name
  Floor,                                  !- Surface Type
  ,                                       !- Construction Name
  {069d832f-246f-42b1-9d70-98607be561c7}, !- Space Name
  Ground,                                 !- Outside Boundary Condition
  ,                                       !- Outside Boundary Condition Object
  NoSun,                                  !- Sun Exposure
  NoWind,                                 !- Wind Exposure
  ,                                       !- View Factor to Ground
  ,                                       !- Number of Vertices
  4.9737991503207e-14, -5.32907051820075e-15, 0, !- X,Y,Z Vertex 1 {m}
  4.9737991503207e-14, 15.4976195036914, 0, !- X,Y,Z Vertex 2 {m}
  4.57200000000005, 15.4976195036914, 0,  !- X,Y,Z Vertex 3 {m}
  4.57200000000005, -5.32907051820075e-15, 0; !- X,Y,Z Vertex 4 {m}

OS:Surface,
  {6f0e1b7d-2e1c-4950-a968-88a258a00132}, !- Handle
  Surface 8,                              !- Name
  Wall,                                   !- Surface Type
  ,                                       !- Construction Name
  {069d832f-246f-42b1-9d70-98607be561c7}, !- Space Name
  Outdoors,                               !- Outside Boundary Condition
  ,                                       !- Outside Boundary Condition Object
  SunExposed,                             !- Sun Exposure
  WindExposed,                            !- Wind Exposure
  ,                                       !- View Factor to Ground
  ,                                       !- Number of Vertices
  4.9737991503207e-14, 15.4976195036914, 3.048, !- X,Y,Z Vertex 1 {m}
  4.9737991503207e-14, 15.4976195036914, 0, !- X,Y,Z Vertex 2 {m}
  4.9737991503207e-14, -5.32907051820075e-15, 0, !- X,Y,Z Vertex 3 {m}
  4.9737991503207e-14, -5.32907051820075e-15, 3.048; !- X,Y,Z Vertex 4 {m}

OS:Surface,
  {c4fa5138-4cfd-471d-ad9f-92b16729e8fa}, !- Handle
  Surface 9,                              !- Name
  Wall,                                   !- Surface Type
  ,                                       !- Construction Name
  {069d832f-246f-42b1-9d70-98607be561c7}, !- Space Name
  Surface,                                !- Outside Boundary Condition
  {a673237a-6c20-407b-8d0f-4d2a85b1cad3}, !- Outside Boundary Condition Object
  NoSun,                                  !- Sun Exposure
  NoWind,                                 !- Wind Exposure
  ,                                       !- View Factor to Ground
  ,                                       !- Number of Vertices
  4.57200000000005, 15.4976195036914, 3.048, !- X,Y,Z Vertex 1 {m}
  4.57200000000005, 15.4976195036914, 0,  !- X,Y,Z Vertex 2 {m}
  4.9737991503207e-14, 15.4976195036914, 0, !- X,Y,Z Vertex 3 {m}
  4.9737991503207e-14, 15.4976195036914, 3.048; !- X,Y,Z Vertex 4 {m}

OS:Surface,
  {b1ab5911-8f6b-4ad7-8763-581683332256}, !- Handle
  Surface 10,                             !- Name
  Wall,                                   !- Surface Type
  ,                                       !- Construction Name
  {069d832f-246f-42b1-9d70-98607be561c7}, !- Space Name
  Surface,                                !- Outside Boundary Condition
  {c9a818e1-162a-4688-a147-5ce9ba7441de}, !- Outside Boundary Condition Object
  NoSun,                                  !- Sun Exposure
  NoWind,                                 !- Wind Exposure
  ,                                       !- View Factor to Ground
  ,                                       !- Number of Vertices
  4.57200000000005, -5.32907051820075e-15, 3.048, !- X,Y,Z Vertex 1 {m}
  4.57200000000005, -5.32907051820075e-15, 0, !- X,Y,Z Vertex 2 {m}
  4.57200000000005, 15.4976195036914, 0,  !- X,Y,Z Vertex 3 {m}
  4.57200000000005, 15.4976195036914, 3.048; !- X,Y,Z Vertex 4 {m}

OS:Surface,
  {06bdbe1e-433b-436e-8dcd-3af8b4ebe1d4}, !- Handle
  Surface 11,                             !- Name
  Wall,                                   !- Surface Type
  ,                                       !- Construction Name
  {069d832f-246f-42b1-9d70-98607be561c7}, !- Space Name
  Surface,                                !- Outside Boundary Condition
  {909e6246-99a5-4e93-af13-2dc2363b4a7a}, !- Outside Boundary Condition Object
  NoSun,                                  !- Sun Exposure
  NoWind,                                 !- Wind Exposure
  ,                                       !- View Factor to Ground
  ,                                       !- Number of Vertices
  4.9737991503207e-14, -5.32907051820075e-15, 3.048, !- X,Y,Z Vertex 1 {m}