
OS:Version,
  {c8fdd54c-2d77-4f02-8ebe-c74712e38bec}, !- Handle
  2.8.0;                                  !- Version Identifier

OS:SpaceType,
  {ed529074-c0cc-4542-9603-058d20451de8}, !- Handle
  Office WholeBuilding - Md Office,       !- Name
  ,                                       !- Default Construction Set Name
  ,                                       !- Default Schedule Set Name
  {79235a71-62b8-47c4-ab69-8fb46624821b}, !- Group Rendering Name
  ,                                       !- Design Specification Outdoor Air Object Name
  ,                                       !- Standards Template
  Office,                                 !- Standards Building Type
  WholeBuilding - Md Office;              !- Standards Space Type

OS:Rendering:Color,
  {79235a71-62b8-47c4-ab69-8fb46624821b}, !- Handle
  Office WholeBuilding - Md Office,       !- Name
  120,                                    !- Rendering Red Value
  230,                                    !- Rendering Green Value
  199;                                    !- Rendering Blue Value

OS:Building,
  {c95db862-8cbd-436f-b2aa-b0fd161b4046}, !- Handle
  90.1-2004|MediumOffice,                 !- Name
  ,                                       !- Building Sector Type
  ,                                       !- North Axis {deg}
  ,                                       !- Nominal Floor to Floor Height {m}
  {ed529074-c0cc-4542-9603-058d20451de8}, !- Space Type Name
  ,                                       !- Default Construction Set Name
  ;                                       !- Default Schedule Set Name

OS:Site,
  {15af1b69-e3a1-40a8-af7a-f782ec249308}, !- Handle
  Site 1,                                 !- Name
  ,                                       !- Latitude {deg}
  ,                                       !- Longitude {deg}
  ,                                       !- Time Zone {hr}
  ,                                       !- Elevation {m}
  ;                                       !- Terrain

OS:BuildingStory,
  {142bce37-5f3d-4426-a202-de8b4a04fae3}, !- Handle
  Story Ground,                           !- Name
  0,                                      !- Nominal Z Coordinate {m}
  3.9624,                                 !- Nominal Floor to Floor Height {m}
  ,                                       !- Default Construction Set Name
  ,                                       !- Default Schedule Set Name
  ;                                       !- Group Rendering Name

OS:Space,
  {1d3b313f-1aa9-406b-bbb0-ad4fd65986cd}, !- Handle
  West Perimeter Space - Story Ground,    !- Name
  ,                                       !- Space Type Name
  ,                                       !- Default Construction Set Name
  ,                                       !- Default Schedule Set Name
  -0,                                     !- Direction of Relative North {deg}
  -17.5976362048998,                      !- X Origin {m}
  -11.7317574699332,                      !- Y Origin {m}
  0,                                      !- Z Origin {m}
  {142bce37-5f3d-4426-a202-de8b4a04fae3}, !- Building Story Name
  {d6973303-86eb-48e2-ac8f-fea0ac6513d8}; !- Thermal Zone Name

OS:Surface,
  {82be1e85-71b7-4a33-907c-ea68dd292513}, !- Handle
  Surface 1,                              !- Name
  Floor,                                  !- Surface Type
  ,                                       !- Construction Name
  {1d3b313f-1aa9-406b-bbb0-ad4fd65986cd}, !- Space Name
  Adiabatic,                              !- Outside Boundary Condition
  ,                                       !- Outside Boundary Condition Object
  NoSun,                                  !- Sun Exposure
  NoWind,                                 !- Wind Exposure
  ,                                       !- View Factor to Ground
  ,                                       !- Number of Vertices
  -7.105427357601e-15, -3.5527136788005e-15, 0, !- X,Y,Z Vertex 1 {m}
  -7.105427357601e-15, 23.4635149398664, 0, !- X,Y,Z Vertex 2 {m}
  4.57199999999999, 18.8915149398664, 0,  !- X,Y,Z Vertex 3 {m}
  4.57199999999999, 4.572, 0;             !- X,Y,Z Vertex 4 {m}

OS:Surface,
  {e167b256-7840-450b-ac06-33894c212797}, !- Handle
  Surface 2,                              !- Name
  Wall,                                   !- Surface Type
  ,                                       !- Construction Name
  {1d3b313f-1aa9-406b-bbb0-ad4fd65986cd}, !- Space Name
  Outdoors,                               !- Outside Boundary Condition
  ,                                       !- Outside Boundary Condition Object
  SunExposed,                             !- Sun Exposure
  WindExposed,                            !- Wind Exposure
  ,                                       !- View Factor to Ground
  ,                                       !- Number of Vertices
  -7.105427357601e-15, 23.4635149398664, 3.9624, !- X,Y,Z Vertex 1 {m}
  -7.105427357601e-15, 23.4635149398664, 0, !- X,Y,Z Vertex 2 {m}
  -7.105427357601e-15, -3.5527136788005e-15, 0, !- X,Y,Z Vertex 3 {m}
  -7.105427357601e-15, -3.5527136788005e-15, 3.9624; !- X,Y,Z Vertex 4 {m}

OS:Surface,
  {1855ad5d-ff92-4207-bae9-e9751c423ced}, !- Handle
  Surface 3,                              !- Name
  Wall,                                   !- Surface Type
  ,                                       !- Construction Name
  {1d3b313f-1aa9-406b-bbb0-ad4fd65986cd}, !- Space Name
  Surface,                                !- Outside Boundary Condition
  {2b43dd3f-59c0-404b-8b7c-b61c262e10fe}, !- Outside Boundary Condition Object
  NoSun,                                  !- Sun Exposure
  NoWind,                                 !- Wind Exposure
  ,                                       !- View Factor to Ground
  ,                                       !- Number of Vertices
  4.57199999999999, 18.8915149398664, 3.9624, !- X,Y,Z Vertex 1 {m}
  4.57199999999999, 18.8915149398664, 0,  !- X,Y,Z Vertex 2 {m}
  -7.105427357601e-15, 23.4635149398664, 0, !- X,Y,Z Vertex 3 {m}
  -7.105427357601e-15, 23.4635149398664, 3.9624; !- X,Y,Z Vertex 4 {m}

OS:Surface,
  {e19a58a1-5f08-48eb-94bf-78bba7b5f226}, !- Handle
  Surface 4,                              !- Name
  Wall,                                   !- Surface Type
  ,                                       !- Construction Name
  {1d3b313f-1aa9-406b-bbb0-ad4fd65986cd}, !- Space Name
  Surface,                                !- Outside Boundary Condition
  {235fc18f-af6a-4ce0-ae91-969004ac9694}, !- Outside Boundary Condition Object
  NoSun,                                  !- Sun Exposure
  NoWind,                                 !- Wind Exposure
  ,                                       !- View Factor to Ground
  ,                                       !- Number of Vertices
  4.57199999999999, 4.572, 3.9624,        !- X,Y,Z Vertex 1 {m}
  4.57199999999999, 4.572, 0,             !- X,Y,Z Vertex 2 {m}
  4.57199999999999, 18.8915149398664, 0,  !- X,Y,Z Vertex 3 {m}
  4.57199999999999, 18.8915149398664, 3.9624; !- X,Y,Z Vertex 4 {m}

OS:Surface,
  {bde6e00c-7216-4a55-9fca-c7b0e3266e31}, !- Handle
  Surface 5,                              !- Name
  Wall,                                   !- Surface Type
  ,                                       !- Construction Name
  {1d3b313f-1aa9-406b-bbb0-ad4fd65986cd}, !- Space Name
  Surface,                                !- Outside Boundary Condition
  {47dccf7f-fd89-44b8-b590-e2ab0aa9ed1c}, !- Outside Boundary Condition Object
  NoSun,                                  !- Sun Exposure
  NoWind,                                 !- Wind Exposure
  ,                                       !- View Factor to Ground
  ,                                       !- Number of Vertices
  -7.105427357601e-15, -3.5527136788005e-15, 3.9624, !- X,Y,Z Vertex 1 {m}
  -7.105427357601e-15, -3.5527136788005e-15, 0, !- X,Y,Z Vertex 2 {m}
  4.57199999999999, 4.572, 0,             !- X,Y,Z Vertex 3 {m}
  4.57199999999999, 4.572, 3.9624;        !- X,Y,Z Vertex 4 {m}

OS:Surface,
  {2fd09478-7b32-4c3b-938c-be55244e748e}, !- Handle
  Surface 6,                              !- Name
  RoofCeiling,                            !- Surface Type
  ,                                       !- Construction Name
  {1d3b313f-1aa9-406b-bbb0-ad4fd65986cd}, !- Space Name
  Adiabatic,                              !- Outside Boundary Condition
  ,                                       !- Outside Boundary Condition Object
  NoSun,                                  !- Sun Exposure
  NoWind,                                 !- Wind Exposure
  ,                                       !- View Factor to Ground
  ,                                       !- Number of Vertices
  4.57199999999999, 4.572, 3.9624,        !- X,Y,Z Vertex 1 {m}
  4.57199999999999, 18.8915149398664, 3.9624, !- X,Y,Z Vertex 2 {m}
  -7.105427357601e-15, 23.4635149398664, 3.9624, !- X,Y,Z Vertex 3 {m}
  -7.105427357601e-15, -3.5527136788005e-15, 3.9624; !- X,Y,Z Vertex 4 {m}

OS:ThermalZone,
  {d6973303-86eb-48e2-ac8f-fea0ac6513d8}, !- Handle
  Zone West Perimeter Space - Story Ground, !- Name
  1,                                      !- Multiplier
  ,                                       !- Ceiling Height {m}
  ,                                       !- Volume {m3}
  ,                                       !- Floor Area {m2}
  ,                                       !- Zone Inside Convection Algorithm
  ,                                       !- Zone Outside Convection Algorithm
  ,                                       !- Zone Conditioning Equipment List Name
  {944987ad-d11c-42ca-9ce7-821763417a7b}, !- Zone Air Inlet Port List
  {69923a50-a708-40d9-a8bd-7dfb10afef85}, !- Zone Air Exhaust Port List
  {5d400a7c-43fd-4220-bce7-6fecf56d5502}, !- Zone Air Node Name
  {67ae0898-2b65-40a4-8a84-d5846c944769}, !- Zone Return Air Port List
  ,                                       !- Primary Daylighting Control Name
  ,                                       !- Fraction of Zone Controlled by Primary Daylighting Control
  ,                                       !- Secondary Daylighting Control Name
  ,                                       !- Fraction of Zone Controlled by Secondary Daylighting Control
  ,                                       !- Illuminance Map Name
  ,                                       !- Group Rendering Name
  ,                                       !- Thermostat Name
  No;                                     !- Use Ideal Air Loads

OS:Node,
  {34f538d4-d776-4706-8e71-90f05c67c11b}, !- Handle
  Node 1,                                 !- Name
  {5d400a7c-43fd-4220-bce7-6fecf56d5502}, !- Inlet Port
  ;                                       !- Outlet Port

OS:Connection,
  {5d400a7c-43fd-4220-bce7-6fecf56d5502}, !- Handle
  {d95086ec-0665-4096-b155-ca09f5663382}, !- Name
  {d6973303-86eb-48e2-ac8f-fea0ac6513d8}, !- Source Object
  11,                                     !- Outlet Port
  {34f538d4-d776-4706-8e71-90f05c67c11b}, !- Target Object
  2;                                      !- Inlet Port

OS:PortList,
  {944987ad-d11c-42ca-9ce7-821763417a7b}, !- Handle
  {8bf67f19-afdf-4d27-99db-4eae3c7f9962}, !- Name
  {d6973303-86eb-48e2-ac8f-fea0ac6513d8}; !- HVAC Component

OS:PortList,
  {69923a50-a708-40d9-a8bd-7dfb10afef85}, !- Handle
  {d12a177f-5064-4de3-ad8b-52a659298054}, !- Name
  {d6973303-86eb-48e2-ac8f-fea0ac6513d8}; !- HVAC Component

OS:PortList,
  {67ae0898-2b65-40a4-8a84-d5846c944769}, !- Handle
  {c3e4ab4b-cf68-44ee-a593-852d6a39aadd}, !- Name
  {d6973303-86eb-48e2-ac8f-fea0ac6513d8}; !- HVAC Component

OS:Sizing:Zone,
  {671621b5-4a99-4c40-b754-2f6edfd147c7}, !- Handle
  {d6973303-86eb-48e2-ac8f-fea0ac6513d8}, !- Zone or ZoneList Name
  SupplyAirTemperature,                   !- Zone Cooling Design Supply Air Temperature Input Method
  14,                                     !- Zone Cooling Design Supply Air Temperature {C}
  11.11,                                  !- Zone Cooling Design Supply Air Temperature Difference {deltaC}
  SupplyAirTemperature,                   !- Zone Heating Design Supply Air Temperature Input Method
  40,                                     !- Zone Heating Design Supply Air Temperature {C}
  11.11,                                  !- Zone Heating Design Supply Air Temperature Difference {deltaC}
  0.0085,                                 !- Zone Cooling Design Supply Air Humidity Ratio {kg-H2O/kg-air}
  0.008,                                  !- Zone Heating Design Supply Air Humidity Ratio {kg-H2O/kg-air}
  ,                                       !- Zone Heating Sizing Factor
  ,                                       !- Zone Cooling Sizing Factor
  DesignDay,                              !- Cooling Design Air Flow Method
  ,                                       !- Cooling Design Air Flow Rate {m3/s}
  ,                                       !- Cooling Minimum Air Flow per Zone Floor Area {m3/s-m2}
  ,                                       !- Cooling Minimum Air Flow {m3/s}
  ,                                       !- Cooling Minimum Air Flow Fraction
  DesignDay,                              !- Heating Design Air Flow Method
  ,                                       !- Heating Design Air Flow Rate {m3/s}
  ,                                       !- Heating Maximum Air Flow per Zone Floor Area {m3/s-m2}
  ,                                       !- Heating Maximum Air Flow {m3/s}
  ,                                       !- Heating Maximum Air Flow Fraction
  ,                                       !- Design Zone Air Distribution Effectiveness in Cooling Mode
  ,                                       !- Design Zone Air Distribution Effectiveness in Heating Mode
  No,                                     !- Account for Dedicated Outdoor Air System
  NeutralSupplyAir,                       !- Dedicated Outdoor Air System Control Strategy
  autosize,                               !- Dedicated Outdoor Air Low Setpoint Temperature for Design {C}
  autosize;                               !- Dedicated Outdoor Air High Setpoint Temperature for Design {C}

OS:ZoneHVAC:EquipmentList,
  {2e294eb0-5814-41d2-892e-0e879f697ab6}, !- Handle
  Zone HVAC Equipment List 1,             !- Name
  {d6973303-86eb-48e2-ac8f-fea0ac6513d8}; !- Thermal Zone

OS:Space,
  {537397a8-12f0-464f-8c9b-37abb96dacae}, !- Handle
  North Perimeter Space - Story Ground,   !- Name
  ,                                       !- Space Type Name
  ,                                       !- Default Construction Set Name
  ,                                       !- Default Schedule Set Name
  -0,                                     !- Direction of Relative North {deg}
  -17.5976362048998,                      !- X Origin {m}
  11.7317574699332,                       !- Y Origin {m}
  0,                                      !- Z Origin {m}
  {142bce37-5f3d-4426-a202-de8b4a04fae3}, !- Building Story Name
  {987f5e8c-06a2-4794-8416-b2af1ab0eb36}; !- Thermal Zone Name

OS:Surface,
  {e954ea27-7b93-42c2-87ab-111e04c4af78}, !- Handle
  Surface 7,                              !- Name
  Floor,                                  !- Surface Type
  ,                                       !- Construction Name
  {537397a8-12f0-464f-8c9b-37abb96dacae}, !- Space Name
  Adiabatic,                              !- Outside Boundary Condition
  ,                                       !- Outside Boundary Condition Object
  NoSun,                                  !- Sun Exposure
  NoWind,                                 !- Wind Exposure
  ,                                       !- View Factor to Ground
  ,                                       !- Number of Vertices
  -7.105427357601e-15, 3.5527136788005e-15, 0, !- X,Y,Z Vertex 1 {m}
  35.1952724097996, 3.5527136788005e-15, 0, !- X,Y,Z Vertex 2 {m}
  30.6232724097996, -4.572, 0,            !- X,Y,Z Vertex 3 {m}
  4.57199999999999, -4.572, 0;            !- X,Y,Z Vertex 4 {m}

OS:Surface,
  {53087f40-08ea-4098-a1f2-c59366992fd5}, !- Handle
  Surface 8,                              !- Name
  Wall,                                   !- Surface Type
  ,                                       !- Construction Name
  {537397a8-12f0-464f-8c9b-37abb96dacae}, !- Space Name
  Outdoors,                               !- Outside Boundary Condition
  ,                                       !- Outside Boundary Condition Object
  SunExposed,                             !- Sun Exposure
  WindExposed,                            !- Wind Exposure
  ,                                       !- View Factor to Ground
  ,                                       !- Number of Vertices
  35.1952724097996, 3.5527136788005e-15, 3.9624, !- X,Y,Z Vertex 1 {m}
  35.1952724097996, 3.5527136788005e-15, 0, !- X,Y,Z Vertex 2 {m}
  -7.105427357601e-15, 3.5527136788005e-15, 0, !- X,Y,Z Vertex 3 {m}
  -7.105427357601e-15, 3.5527136788005e-15, 3.9624; !- X,Y,Z Vertex 4 {m}

OS:Surface,
  {49f0be27-f066-4cee-9600-f653bc2136e6}, !- Handle
  Surface 9,                              !- Name
  Wall,                                   !- Surface Type
  ,                                       !- Construction Name
  {537397a8-12f0-464f-8c9b-37abb96dacae}, !- Space Name
  Surface,                                !- Outside Boundary Condition
  {3b81b3dd-f1e7-4813-9b64-ac5a5d4e281a}, !- Outside Boundary Condition Object
  NoSun,                                  !- Sun Exposure
  NoWind,                                 !- Wind Exposure
  ,                                       !- View Factor to Ground
  ,                                       !- Number of Vertices
  30.6232724097996, -4.572, 3.9624,       !- X,Y,Z Vertex 1 {m}
  30.6232724097996, -4.572, 0,            !- X,Y,Z Vertex 2 {m}
  35.1952724097996, 3.5527136788005e-15, 0, !- X,Y,Z Vertex 3 {m}
  35.1952724097996, 3.5527136788005e-15, 3.9624; !- X,Y,Z Vertex 4 {m}

OS:Surface,
  {39b28495-6ab3-471b-9d21-6945193c4732}, !- Handle
  Surface 10,                             !- Name
  Wall,                                   !- Surface Type
  ,                                       !- Construction Name
  {537397a8-12f0-464f-8c9b-37abb96dacae}, !- Space Name
  Surface,                                !- Outside Boundary Condition
  {ae23d76c-3b01-48be-94a3-b13eeb8344e3}, !- Outside Boundary Condition Object
  NoSun,                                  !- Sun Exposure
  NoWind,                                 !- Wind Exposure
  ,                                       !- View Factor to Ground
  ,                                       !- Number of Vertices
  4.57199999999999, -4.572, 3.9624,       !- X,Y,Z Vertex 1 {m}
  4.57199999999999, -4.572, 0,            !- X,Y,Z Vertex 2 {m}
  30.6232724097996, -4.572, 0,            !- X,Y,Z Vertex 3 {m}
  30.6232724097996, -4.572, 3.9624;       !- X,Y,Z Vertex 4 {m}

OS:Surface,
  {2b43dd3f-59c0-404b-8b7c-b61c262e10fe}, !- Handle
  Surface 11,                             !- Name
  Wall,                                   !- Surface Type
  ,                                       !- Construction Name
  {537397a8-12f0-464f-8c9b-37abb96dacae}, !- Space Name
  Surface,                                !- Outside Boundary Condition
  {1855ad5d-ff92-4207-bae9-e9751c423ced}, !- Outside Boundary Condition Object
  NoSun,                                  !- Sun Exposure
  NoWind,                                 !- Wind Exposure
  ,                                       !- View Factor to Ground
  ,                                       !- Number of Vertices
  -7.105427357601e-15, 3.5527136788005e-15, 3.9624, !- X,Y,Z Vertex 1 {m}
  -7.105427357601e-15, 3.5527136788005e-15, 0, !- X,Y,Z Vertex 2 {m}
  4.57199999999999, -4.572, 0,            !- X,Y,Z Vertex 3 {m}
  4.57199999999999, -4.572, 3.9624;       !- X,Y,Z Vertex 4 {m}

OS:Surface,
  {7f84cb36-bdd9-46fc-be22-2feb676e6023}, !- Handle
  Surface 12,                             !- Name
  RoofCeiling,                            !- Surface Type
  ,                                       !- Construction Name
  {537397a8-12f0-464f-8c9b-37abb96dacae}, !- Space Name
  Adiabatic,                              !- Outside Boundary Condition
  ,                                       !- Outside Boundary Condition Object
  NoSun,                                  !- Sun Exposure
  NoWind,                                 !- Wind Exposure
  ,                                       !- View Factor to Ground
  ,                                       !- Number of Vertices
  4.57199999999999, -4.572, 3.9624,       !- X,Y,Z Vertex 1 {m}
  30.6232724097996, -4.572, 3.9624,       !- X,Y,Z Vertex 2 {m}
  35.1952724097996, 3.5527136788005e-15, 3.9624, !- X,Y,Z Vertex 3 {m}
  -7.105427357601e-15, 3.5527136788005e-15, 3.9624; !- X,Y,Z Vertex 4 {m}

OS:ThermalZone,
  {987f5e8c-06a2-4794-8416-b2af1ab0eb36}, !- Handle
  Zone North Perimeter Space - Story Ground, !- Name
  1,                                      !- Multiplier
  ,                                       !- Ceiling Height {m}
  ,                                       !- Volume {m3}
  ,                                       !- Floor Area {m2}
  ,                                       !- Zone Inside Convection Algorithm
  ,                                       !- Zone Outside Convection Algorithm
  ,                                       !- Zone Conditioning Equipment List Name
  {c894809a-1bb1-4e41-b6eb-d487f2b33a9c}, !- Zone Air Inlet Port List
  {5f8bf4d9-7e6f-4a91-a14b-7c199ce2d4f4}, !- Zone Air Exhaust Port List
  {f2d76cc6-b9a2-425b-8d08-366c34a1de03}, !- Zone Air Node Name
  {2247db35-ac55-4bbe-991d-a4e633e13023}, !- Zone Return Air Port List
  ,                                       !- Primary Daylighting Control Name
  ,                                       !- Fraction of Zone Controlled by Primary Daylighting Control
  ,                                       !- Secondary Daylighting Control Name
  ,                                       !- Fraction of Zone Controlled by Secondary Daylighting Control
  ,                                       !- Illuminance Map Name
  ,                                       !- Group Rendering Name
  ,                                       !- Thermostat Name
  No;                                     !- Use Ideal Air Loads

OS:Node,
  {376f3829-a253-43b2-bc8f-9f175fca2cc5}, !- Handle
  Node 2,                                 !- Name
  {f2d76cc6-b9a2-425b-8d08-366c34a1de03}, !- Inlet Port
  ;                                       !- Outlet Port

OS:Connection,
  {f2d76cc6-b9a2-425b-8d08-366c34a1de03}, !- Handle
  {3d469256-dfe2-42b6-95d7-2155b0a6a75d}, !- Name
  {987f5e8c-06a2-4794-8416-b2af1ab0eb36}, !- Source Object
  11,                                     !- Outlet Port
  {376f3829-a253-43b2-bc8f-9f175fca2cc5}, !- Target Object
  2;                                      !- Inlet Port

OS:PortList,
  {c894809a-1bb1-4e41-b6eb-d487f2b33a9c}, !- Handle
  {7793cd46-e1df-4d45-8d26-ce0379f6270f}, !- Name
  {987f5e8c-06a2-4794-8416-b2af1ab0eb36}; !- HVAC Component

OS:PortList,
  {5f8bf4d9-7e6f-4a91-a14b-7c199ce2d4f4}, !- Handle
  {87041835-b7cd-4d65-9b1d-989d33d30bbc}, !- Name
  {987f5e8c-06a2-4794-8416-b2af1ab0eb36}; !- HVAC Component

OS:PortList,
  {2247db35-ac55-4bbe-991d-a4e633e13023}, !- Handle
  {c9000bef-655d-4a85-92f7-907da77659e7}, !- Name
  {987f5e8c-06a2-4794-8416-b2af1ab0eb36}; !- HVAC Component

OS:Sizing:Zone,
  {710c8e50-b677-4194-a970-9ad38d9a6b96}, !- Handle
  {987f5e8c-06a2-4794-8416-b2af1ab0eb36}, !- Zone or ZoneList Name
  SupplyAirTemperature,                   !- Zone Cooling Design Supply Air Temperature Input Method
  14,                                     !- Zone Cooling Design Supply Air Temperature {C}
  11.11,                                  !- Zone Cooling Design Supply Air Temperature Difference {deltaC}
  SupplyAirTemperature,                   !- Zone Heating Design Supply Air Temperature Input Method
  40,                                     !- Zone Heating Design Supply Air Temperature {C}
  11.11,                                  !- Zone Heating Design Supply Air Temperature Difference {deltaC}
  0.0085,                                 !- Zone Cooling Design Supply Air Humidity Ratio {kg-H2O/kg-air}
  0.008,                                  !- Zone Heating Design Supply Air Humidity Ratio {kg-H2O/kg-air}
  ,                                       !- Zone Heating Sizing Factor
  ,                                       !- Zone Cooling Sizing Factor
  DesignDay,                              !- Cooling Design Air Flow Method
  ,                                       !- Cooling Design Air Flow Rate {m3/s}
  ,                                       !- Cooling Minimum Air Flow per Zone Floor Area {m3/s-m2}
  ,                                       !- Cooling Minimum Air Flow {m3/s}
  ,                                       !- Cooling Minimum Air Flow Fraction
  DesignDay,                              !- Heating Design Air Flow Method
  ,                                       !- Heating Design Air Flow Rate {m3/s}
  ,                                       !- Heating Maximum Air Flow per Zone Floor Area {m3/s-m2}
  ,                                       !- Heating Maximum Air Flow {m3/s}
  ,                                       !- Heating Maximum Air Flow Fraction
  ,                                       !- Design Zone Air Distribution Effectiveness in Cooling Mode
  ,                                       !- Design Zone Air Distribution Effectiveness in Heating Mode
  No,                                     !- Account for Dedicated Outdoor Air System
  NeutralSupplyAir,                       !- Dedicated Outdoor Air System Control Strategy
  autosize,                               !- Dedicated Outdoor Air Low Setpoint Temperature for Design {C}
  autosize;                               !- Dedicated Outdoor Air High Setpoint Temperature for Design {C}

OS:ZoneHVAC:EquipmentList,
  {d46f2f9c-dd1c-4502-9dde-33324d84a5ec}, !- Handle
  Zone HVAC Equipment List 2,             !- Name
  {987f5e8c-06a2-4794-8416-b2af1ab0eb36}; !- Thermal Zone

OS:Space,
  {7f572e3e-af23-4e3a-87dc-b2d35b2a0803}, !- Handle
  East Perimeter Space - Story Ground,    !- Name
  ,                                       !- Space Type Name
  ,                                       !- Default Construction Set Name
  ,                                       !- Default Schedule Set Name
  -0,                                     !- Direction of Relative North {deg}
  17.5976362048998,                       !- X Origin {m}
  11.7317574699332,                       !- Y Origin {m}
  0,                                      !- Z Origin {m}
  {142bce37-5f3d-4426-a202-de8b4a04fae3}, !- Building Story Name
  {753e40ad-24ce-41fb-8b74-d21cb8097e95}; !- Thermal Zone Name

OS:Surface,
  {ebc9f8c9-67e6-4e01-90bd-c008def490ba}, !- Handle
  Surface 13,                             !- Name
  Floor,                                  !- Surface Type
  ,                                       !- Construction Name
  {7f572e3e-af23-4e3a-87dc-b2d35b2a0803}, !- Space Name
  Adiabatic,                              !- Outside Boundary Condition
  ,                                       !- Outside Boundary Condition Object
  NoSun,                                  !- Sun Exposure
  NoWind,                                 !- Wind Exposure
  ,                                       !- View Factor to Ground
  ,                                       !- Number of Vertices
  7.105427357601e-15, 3.5527136788005e-15, 0, !- X,Y,Z Vertex 1 {m}
  7.105427357601e-15, -23.4635149398664, 0, !- X,Y,Z Vertex 2 {m}
  -4.57199999999999, -18.8915149398664, 0, !- X,Y,Z Vertex 3 {m}
  -4.57199999999999, -4.572, 0;           !- X,Y,Z Vertex 4 {m}

OS:Surface,
  {311a0fc3-a9be-4e44-849e-4462cb911837}, !- Handle
  Surface 14,                             !- Name
  Wall,                                   !- Surface Type
  ,                                       !- Construction Name
  {7f572e3e-af23-4e3a-87dc-b2d35b2a0803}, !- Space Name
  Outdoors,                               !- Outside Boundary Condition
  ,                                       !- Outside Boundary Condition Object
  SunExposed,                             !- Sun Exposure
  WindExposed,                            !- Wind Exposure
  ,                                       !- View Factor to Ground
  ,                                       !- Number of Vertices
  7.105427357601e-15, -23.4635149398664, 3.9624, !- X,Y,Z Vertex 1 {m}
  7.105427357601e-15, -23.4635149398664, 0, !- X,Y,Z Vertex 2 {m}
  7.105427357601e-15, 3.5527136788005e-15, 0, !- X,Y,Z Vertex 3 {m}
  7.105427357601e-15, 3.5527136788005e-15, 3.9624; !- X,Y,Z Vertex 4 {m}

OS:Surface,
  {4e4f6dea-7faf-4652-979e-98cf03c00f06}, !- Handle
  Surface 15,                             !- Name
  Wall,                                   !- Surface Type
  ,                                       !- Construction Name
  {7f572e3e-af23-4e3a-87dc-b2d35b2a0803}, !- Space Name
  Surface,                                !- Outside Boundary Condition
  {4838a54a-c848-4fb0-b32f-40a4f3bb53ef}, !- Outside Boundary Condition Object
  NoSun,                                  !- Sun Exposure
  NoWind,                                 !- Wind Exposure
  ,                                       !- View Factor to Ground
  ,                                       !- Number of Vertices
  -4.57199999999999, -18.8915149398664, 3.9624, !- X,Y,Z Vertex 1 {m}
  -4.57199999999999, -18.8915149398664, 0, !- X,Y,Z Vertex 2 {m}
  7.105427357601e-15, -23.4635149398664, 0, !- X,Y,Z Vertex 3 {m}
  7.105427357601e-15, -23.4635149398664, 3.9624; !- X,Y,Z Vertex 4 {m}

OS:Surface,
  {535059f9-44ea-4fdb-94e0-7500ddecb692}, !- Handle
  Surface 16,                             !- Name
  Wall,                                   !- Surface Type
  ,                                       !- Construction Name
  {7f572e3e-af23-4e3a-87dc-b2d35b2a0803}, !- Space Name
  Surface,                                !- Outside Boundary Condition