
OS:Version,
  {f6a47d0a-6a80-410c-97c3-da94cc58194e}, !- Handle
  2.8.0;                                  !- Version Identifier

OS:SpaceType,
  {8ee54da1-ce37-4fc4-8abb-3f14e687a9a1}, !- Handle
  SecondarySchool Auditorium,             !- Name
  ,                                       !- Default Construction Set Name
  ,                                       !- Default Schedule Set Name
  {a6f642ab-754c-4332-9614-323452521c5c}, !- Group Rendering Name
  ,                                       !- Design Specification Outdoor Air Object Name
  ,                                       !- Standards Template
  SecondarySchool,                        !- Standards Building Type
  Auditorium;                             !- Standards Space Type

OS:Rendering:Color,
  {a6f642ab-754c-4332-9614-323452521c5c}, !- Handle
  SecondarySchool Auditorium,             !- Name
  230,                                    !- Rendering Red Value
  196,                                    !- Rendering Green Value
  120;                                    !- Rendering Blue Value

OS:SpaceType,
  {c8f5e163-1387-47bc-9ea9-ff63117bea7f}, !- Handle
  SecondarySchool Cafeteria,              !- Name
  ,                                       !- Default Construction Set Name
  ,                                       !- Default Schedule Set Name
  {5b2e44d3-c665-496c-aef0-a0982751c484}, !- Group Rendering Name
  ,                                       !- Design Specification Outdoor Air Object Name
  ,                                       !- Standards Template
  SecondarySchool,                        !- Standards Building Type
  Cafeteria;                              !- Standards Space Type

OS:Rendering:Color,
  {5b2e44d3-c665-496c-aef0-a0982751c484}, !- Handle
  SecondarySchool Cafeteria,              !- Name
  31,                                     !- Rendering Red Value
  169,                                    !- Rendering Green Value
  34;                                     !- Rendering Blue Value

OS:SpaceType,
  {5b232468-0a85-43dd-b856-560d625436ec}, !- Handle
  SecondarySchool Classroom,              !- Name
  ,                                       !- Default Construction Set Name
  ,                                       !- Default Schedule Set Name
  {78048a96-6313-4f0b-8b6c-5c3953f6339d}, !- Group Rendering Name
  ,                                       !- Design Specification Outdoor Air Object Name
  ,                                       !- Standards Template
  SecondarySchool,                        !- Standards Building Type
  Classroom;                              !- Standards Space Type

OS:Rendering:Color,
  {78048a96-6313-4f0b-8b6c-5c3953f6339d}, !- Handle
  SecondarySchool Classroom,              !- Name
  120,                                    !- Rendering Red Value
  230,                                    !- Rendering Green Value
  199;                                    !- Rendering Blue Value

OS:SpaceType,
  {a112e1db-fe6b-46ae-b1be-630c046b0e81}, !- Handle
  SecondarySchool Corridor,               !- Name
  ,                                       !- Default Construction Set Name
  ,                                       !- Default Schedule Set Name
  {cfdfdc42-f067-4482-84c6-0d2183ed6875}, !- Group Rendering Name
  ,                                       !- Design Specification Outdoor Air Object Name
  ,                                       !- Standards Template
  SecondarySchool,                        !- Standards Building Type
  Corridor;                               !- Standards Space Type

OS:Rendering:Color,
  {cfdfdc42-f067-4482-84c6-0d2183ed6875}, !- Handle
  SecondarySchool Corridor,               !- Name
  169,                                    !- Rendering Red Value
  31,                                     !- Rendering Green Value
  31;                                     !- Rendering Blue Value

OS:SpaceType,
  {e9806636-b0c6-42c7-a09a-962d17c1e078}, !- Handle
  SecondarySchool Gym,                    !- Name
  ,                                       !- Default Construction Set Name
  ,                                       !- Default Schedule Set Name
  {18099df0-654c-4c66-9c8e-ba1ec94bba0d}, !- Group Rendering Name
  ,                                       !- Design Specification Outdoor Air Object Name
  ,                                       !- Standards Template
  SecondarySchool,                        !- Standards Building Type
  Gym;                                    !- Standards Space Type

OS:Rendering:Color,
  {18099df0-654c-4c66-9c8e-ba1ec94bba0d}, !- Handle
  SecondarySchool Gym,                    !- Name
  154,                                    !- Rendering Red Value
  230,                                    !- Rendering Green Value
  120;                                    !- Rendering Blue Value

OS:SpaceType,
  {9012edb9-3568-4901-a2c9-8ad3ab505d60}, !- Handle
  SecondarySchool Kitchen,                !- Name
  ,                                       !- Default Construction Set Name
  ,                                       !- Default Schedule Set Name
  {f10a6054-55e9-434f-b343-ec1e086a43be}, !- Group Rendering Name
  ,                                       !- Design Specification Outdoor Air Object Name
  ,                                       !- Standards Template
  SecondarySchool,                        !- Standards Building Type
  Kitchen;                                !- Standards Space Type

OS:Rendering:Color,
  {f10a6054-55e9-434f-b343-ec1e086a43be}, !- Handle
  SecondarySchool Kitchen,                !- Name
  78,                                     !- Rendering Red Value
  222,                                    !- Rendering Green Value
  133;                                    !- Rendering Blue Value

OS:SpaceType,
  {ba6ea6da-ef7d-42e3-b4d4-f682bf61eab1}, !- Handle
  SecondarySchool Library,                !- Name
  ,                                       !- Default Construction Set Name
  ,                                       !- Default Schedule Set Name
  {7f8d3184-eafe-4a60-8eb1-440c3c4e21a7}, !- Group Rendering Name
  ,                                       !- Design Specification Outdoor Air Object Name
  ,                                       !- Standards Template
  SecondarySchool,                        !- Standards Building Type
  Library;                                !- Standards Space Type

OS:Rendering:Color,
  {7f8d3184-eafe-4a60-8eb1-440c3c4e21a7}, !- Handle
  SecondarySchool Library,                !- Name
  230,                                    !- Rendering Red Value
  196,                                    !- Rendering Green Value
  120;                                    !- Rendering Blue Value

OS:SpaceType,
  {7ca50ffb-59b0-420b-9ec9-1ead09d889c7}, !- Handle
  SecondarySchool Lobby,                  !- Name
  ,                                       !- Default Construction Set Name
  ,                                       !- Default Schedule Set Name
  {7a002093-d939-4f96-ad84-87049bc3319e}, !- Group Rendering Name
  ,                                       !- Design Specification Outdoor Air Object Name
  ,                                       !- Standards Template
  SecondarySchool,                        !- Standards Building Type
  Lobby;                                  !- Standards Space Type

OS:Rendering:Color,
  {7a002093-d939-4f96-ad84-87049bc3319e}, !- Handle
  SecondarySchool Lobby,                  !- Name
  230,                                    !- Rendering Red Value
  157,                                    !- Rendering Green Value
  120;                                    !- Rendering Blue Value

OS:SpaceType,
  {dc7c1bf4-9580-46f8-b897-712895fec396}, !- Handle
  SecondarySchool Mechanical,             !- Name
  ,                                       !- Default Construction Set Name
  ,                                       !- Default Schedule Set Name
  {46536753-3ed0-4362-9703-7ca59a63f284}, !- Group Rendering Name
  ,                                       !- Design Specification Outdoor Air Object Name
  ,                                       !- Standards Template
  SecondarySchool,                        !- Standards Building Type
  Mechanical;                             !- Standards Space Type

OS:Rendering:Color,
  {46536753-3ed0-4362-9703-7ca59a63f284}, !- Handle
  SecondarySchool Mechanical,             !- Name
  41,                                     !- Rendering Red Value
  31,                                     !- Rendering Green Value
  169;                                    !- Rendering Blue Value

OS:SpaceType,
  {8197b3ff-d727-48c3-8f4d-e8fea16d0147}, !- Handle
  SecondarySchool Office,                 !- Name
  ,                                       !- Default Construction Set Name
  ,                                       !- Default Schedule Set Name
  {bc1aad02-6089-4feb-9830-4327daeb9d92}, !- Group Rendering Name
  ,                                       !- Design Specification Outdoor Air Object Name
  ,                                       !- Standards Template
  SecondarySchool,                        !- Standards Building Type
  Office;                                 !- Standards Space Type

OS:Rendering:Color,
  {bc1aad02-6089-4feb-9830-4327daeb9d92}, !- Handle
  SecondarySchool Office,                 !- Name
  120,                                    !- Rendering Red Value
  230,                                    !- Rendering Green Value
  199;                                    !- Rendering Blue Value

OS:SpaceType,
  {58680468-63e6-41c1-b6ac-5c5b0dfe92e7}, !- Handle
  SecondarySchool Restroom,               !- Name
  ,                                       !- Default Construction Set Name
  ,                                       !- Default Schedule Set Name
  {b4bc028d-ec8a-4e20-9f2b-0514e4d76965}, !- Group Rendering Name
  ,                                       !- Design Specification Outdoor Air Object Name
  ,                                       !- Standards Template
  SecondarySchool,                        !- Standards Building Type
  Restroom;                               !- Standards Space Type

OS:Rendering:Color,
  {b4bc028d-ec8a-4e20-9f2b-0514e4d76965}, !- Handle
  SecondarySchool Restroom,               !- Name
  169,                                    !- Rendering Red Value
  169,                                    !- Rendering Green Value
  31;                                     !- Rendering Blue Value

OS:Building,
  {59e40bec-9ab4-4cfa-bdf1-8d3e1056cf1c}, !- Handle
  90.1-2004|SecondarySchool,              !- Name
  ,                                       !- Building Sector Type
  45,                                     !- North Axis {deg}
  ,                                       !- Nominal Floor to Floor Height {m}
  {5b232468-0a85-43dd-b856-560d625436ec}, !- Space Type Name
  ,                                       !- Default Construction Set Name
  ;                                       !- Default Schedule Set Name

OS:Site,
  {41e1259c-4167-4586-bba6-22e14f3ba378}, !- Handle
  Site 1,                                 !- Name
  ,                                       !- Latitude {deg}
  ,                                       !- Longitude {deg}
  ,                                       !- Time Zone {hr}
  ,                                       !- Elevation {m}
  ;                                       !- Terrain

OS:BuildingStory,
  {d2c7dd61-de7b-497a-847f-b731ada3028f}, !- Handle
  Story B1,                               !- Name
  -3.9624,                                !- Nominal Z Coordinate {m}
  3.9624,                                 !- Nominal Floor to Floor Height {m}
  ,                                       !- Default Construction Set Name
  ,                                       !- Default Schedule Set Name
  ;                                       !- Group Rendering Name

OS:Space,
  {5a337a33-01e1-4dc4-9485-8658cdf3b912}, !- Handle
  West Perimeter Space - Story B1,        !- Name
  ,                                       !- Space Type Name
  ,                                       !- Default Construction Set Name
  ,                                       !- Default Schedule Set Name
  -0,                                     !- Direction of Relative North {deg}
  -39.3495107974674,                      !- X Origin {m}
  -13.1165035991558,                      !- Y Origin {m}
  -3.9624,                                !- Z Origin {m}
  {d2c7dd61-de7b-497a-847f-b731ada3028f}, !- Building Story Name
  {1cb130d7-ab06-4c6d-b3d5-e9bf1d09bd94}; !- Thermal Zone Name

OS:Surface,
  {0404c26f-48c4-49a8-94df-194cd3b90f27}, !- Handle
  Surface 1,                              !- Name
  Floor,                                  !- Surface Type
  ,                                       !- Construction Name
  {5a337a33-01e1-4dc4-9485-8658cdf3b912}, !- Space Name
  Ground,                                 !- Outside Boundary Condition
  ,                                       !- Outside Boundary Condition Object
  NoSun,                                  !- Sun Exposure
  NoWind,                                 !- Wind Exposure
  ,                                       !- View Factor to Ground
  ,                                       !- Number of Vertices
  -4.9737991503207e-14, -1.4210854715202e-14, 0, !- X,Y,Z Vertex 1 {m}
  -4.9737991503207e-14, 26.2330071983116, 0, !- X,Y,Z Vertex 2 {m}
  4.57199999999995, 21.6610071983116, 0,  !- X,Y,Z Vertex 3 {m}
  4.57199999999995, 4.572, 0;             !- X,Y,Z Vertex 4 {m}

OS:Surface,
  {1ac230ac-eb53-42b6-9ff6-4f1635968c7c}, !- Handle
  Surface 2,                              !- Name
  Wall,                                   !- Surface Type
  ,                                       !- Construction Name
  {5a337a33-01e1-4dc4-9485-8658cdf3b912}, !- Space Name
  Ground,                                 !- Outside Boundary Condition
  ,                                       !- Outside Boundary Condition Object
  NoSun,                                  !- Sun Exposure
  NoWind,                                 !- Wind Exposure
  ,                                       !- View Factor to Ground
  ,                                       !- Number of Vertices
  -4.9737991503207e-14, 26.2330071983116, 3.9624, !- X,Y,Z Vertex 1 {m}
  -4.9737991503207e-14, 26.2330071983116, 0, !- X,Y,Z Vertex 2 {m}
  -4.9737991503207e-14, -1.4210854715202e-14, 0, !- X,Y,Z Vertex 3 {m}
  -4.9737991503207e-14, -1.4210854715202e-14, 3.9624; !- X,Y,Z Vertex 4 {m}

OS:Surface,
  {87102942-95ad-4b0c-9f46-67239ceefe0e}, !- Handle
  Surface 3,                              !- Name
  Wall,                                   !- Surface Type
  ,                                       !- Construction Name
  {5a337a33-01e1-4dc4-9485-8658cdf3b912}, !- Space Name
  Surface,                                !- Outside Boundary Condition
  {804bdf78-3e76-4251-8364-bd95c8ce6565}, !- Outside Boundary Condition Object
  NoSun,                                  !- Sun Exposure
  NoWind,                                 !- Wind Exposure
  ,                                       !- View Factor to Ground
  ,                                       !- Number of Vertices
  4.57199999999995, 21.6610071983116, 3.9624, !- X,Y,Z Vertex 1 {m}
  4.57199999999995, 21.6610071983116, 0,  !- X,Y,Z Vertex 2 {m}
  -4.9737991503207e-14, 26.2330071983116, 0, !- X,Y,Z Vertex 3 {m}
  -4.9737991503207e-14, 26.2330071983116, 3.9624; !- X,Y,Z Vertex 4 {m}

OS:Surface,
  {1fc9483a-95f2-4aeb-b33d-869c580ce890}, !- Handle
  Surface 4,                              !- Name
  Wall,                                   !- Surface Type
  ,                                       !- Construction Name
  {5a337a33-01e1-4dc4-9485-8658cdf3b912}, !- Space Name
  Surface,                                !- Outside Boundary Condition
  {2ba08f23-3a92-4642-b42b-ccdd6983a4bd}, !- Outside Boundary Condition Object
  NoSun,                                  !- Sun Exposure
  NoWind,                                 !- Wind Exposure
  ,                                       !- View Factor to Ground
  ,                                       !- Number of Vertices
  4.57199999999995, 4.572, 3.9624,        !- X,Y,Z Vertex 1 {m}
  4.57199999999995, 4.572, 0,             !- X,Y,Z Vertex 2 {m}
  4.57199999999995, 21.6610071983116, 0,  !- X,Y,Z Vertex 3 {m}
  4.57199999999995, 21.6610071983116, 3.9624; !- X,Y,Z Vertex 4 {m}

OS:Surface,
  {8f6560e1-8f14-46c9-9280-1cae69d3cdfb}, !- Handle
  Surface 5,                              !- Name
  Wall,                                   !- Surface Type
  ,                                       !- Construction Name
  {5a337a33-01e1-4dc4-9485-8658cdf3b912}, !- Space Name
  Surface,                                !- Outside Boundary Condition
  {0565ed7b-f962-46a6-9b8c-8be065a028ef}, !- Outside Boundary Condition Object
  NoSun,                                  !- Sun Exposure
  NoWind,                                 !- Wind Exposure
  ,                                       !- View Factor to Ground
  ,                                       !- Number of Vertices
  -4.9737991503207e-14, -1.4210854715202e-14, 3.9624, !- X,Y,Z Vertex 1 {m}
  -4.9737991503207e-14, -1.4210854715202e-14, 0, !- X,Y,Z Vertex 2 {m}
  4.57199999999995, 4.572, 0,             !- X,Y,Z Vertex 3 {m}
  4.57199999999995, 4.572, 3.9624;        !- X,Y,Z Vertex 4 {m}

OS:Surface,
  {6a5f7243-25b7-4670-82a7-720f8fc748ee}, !- Handle
  Surface 6,                              !- Name
  RoofCeiling,                            !- Surface Type
  ,                                       !- Construction Name
  {5a337a33-01e1-4dc4-9485-8658cdf3b912}, !- Space Name
  Surface,                                !- Outside Boundary Condition
  {3a062b5f-15fd-4b1f-99cb-faa879a10162}, !- Outside Boundary Condition Object
  NoSun,                                  !- Sun Exposure
  NoWind,                                 !- Wind Exposure
  ,                                       !- View Factor to Ground
  ,                                       !- Number of Vertices
  4.57199999999995, 4.572, 3.9624,        !- X,Y,Z Vertex 1 {m}
  4.57199999999995, 21.6610071983116, 3.9624, !- X,Y,Z Vertex 2 {m}
  -4.9737991503207e-14, 26.2330071983116, 3.9624, !- X,Y,Z Vertex 3 {m}
  -4.9737991503207e-14, -1.4210854715202e-14, 3.9624; !- X,Y,Z Vertex 4 {m}

OS:ThermalZone,
  {1cb130d7-ab06-4c6d-b3d5-e9bf1d09bd94}, !- Handle
  Zone West Perimeter Space - Story B1,   !- Name
  1,                                      !- Multiplier
  ,                                       !- Ceiling Height {m}
  ,                                       !- Volume {m3}
  ,                                       !- Floor Area {m2}
  ,                                       !- Zone Inside Convection Algorithm
  ,                                       !- Zone Outside Convection Algorithm
  ,                                       !- Zone Conditioning Equipment List Name
  {f0da37e3-2959-41cd-b244-0dc5ecc8f300}, !- Zone Air Inlet Port List
  {27867cff-7f3b-442d-93a0-7f6e437ed094}, !- Zone Air Exhaust Port List
  {ad5ff4a3-6bb8-4e7a-95a5-9dab169d1bb3}, !- Zone Air Node Name
  {89f1ccf1-1a38-494c-95aa-118a12e35238}, !- Zone Return Air Port List
  ,                                       !- Primary Daylighting Control Name
  ,                                       !- Fraction of Zone Controlled by Primary Daylighting Control
  ,                                       !- Secondary Daylighting Control Name
  ,                                       !- Fraction of Zone Controlled by Secondary Daylighting Control
  ,                                       !- Illuminance Map Name
  ,                                       !- Group Rendering Name
  ,                                       !- Thermostat Name
  No;                                     !- Use Ideal Air Loads

OS:Node,
  {3a8b24f8-bba6-4ee4-b420-3c806a6ce751}, !- Handle
  Node 1,                                 !- Name
  {ad5ff4a3-6bb8-4e7a-95a5-9dab169d1bb3}, !- Inlet Port
  ;                                       !- Outlet Port

OS:Connection,
  {ad5ff4a3-6bb8-4e7a-95a5-9dab169d1bb3}, !- Handle
  {40dfb9b0-4dea-4ec4-b18a-4521d7968a5c}, !- Name
  {1cb130d7-ab06-4c6d-b3d5-e9bf1d09bd94}, !- Source Object
  11,                                     !- Outlet Port
  {3a8b24f8-bba6-4ee4-b420-3c806a6ce751}, !- Target Object
  2;                                      !- Inlet Port

OS:PortList,
  {f0da37e3-2959-41cd-b244-0dc5ecc8f300}, !- Handle
  {f2f70c6c-0530-4e37-b561-7fabd4763376}, !- Name
  {1cb130d7-ab06-4c6d-b3d5-e9bf1d09bd94}; !- HVAC Component

OS:PortList,
  {27867cff-7f3b-442d-93a0-7f6e437ed094}, !- Handle
  {c2f7e49a-24e7-40ae-b18f-86a8c0c81a7b}, !- Name
  {1cb130d7-ab06-4c6d-b3d5-e9bf1d09bd94}; !- HVAC Component

OS:PortList,
  {89f1ccf1-1a38-494c-95aa-118a12e35238}, !- Handle
  {e9baa4a5-2fb8-4f43-8378-5c9e91d43138}, !- Name
  {1cb130d7-ab06-4c6d-b3d5-e9bf1d09bd94}; !- HVAC Component

OS:Sizing:Zone,
  {76453050-d930-4632-8b13-5100490d211b}, !- Handle
  {1cb130d7-ab06-4c6d-b3d5-e9bf1d09bd94}, !- Zone or ZoneList Name
  SupplyAirTemperature,                   !- Zone Cooling Design Supply Air Temperature Input Method
  14,                                     !- Zone Cooling Design Supply Air Temperature {C}
  11.11,                                  !- Zone Cooling Design Supply Air Temperature Difference {deltaC}
  SupplyAirTemperature,                   !- Zone Heating Design Supply Air Temperature Input Method
  40,                                     !- Zone Heating Design Supply Air Temperature {C}
  11.11,                                  !- Zone Heating Design Supply Air Temperature Difference {deltaC}
  0.0085,                                 !- Zone Cooling Design Supply Air Humidity Ratio {kg-H2O/kg-air}
  0.008,                                  !- Zone Heating Design Supply Air Humidity Ratio {kg-H2O/kg-air}
  ,                                       !- Zone Heating Sizing Factor
  ,                                       !- Zone Cooling Sizing Factor
  DesignDay,                              !- Cooling Design Air Flow Method
  ,                                       !- Cooling Design Air Flow Rate {m3/s}
  ,                                       !- Cooling Minimum Air Flow per Zone Floor Area {m3/s-m2}
  ,                                       !- Cooling Minimum Air Flow {m3/s}
  ,                                       !- Cooling Minimum Air Flow Fraction
  DesignDay,                              !- Heating Design Air Flow Method
  ,                                       !- Heating Design Air Flow Rate {m3/s}
  ,                                       !- Heating Maximum Air Flow per Zone Floor Area {m3/s-m2}
  ,                                       !- Heating Maximum Air Flow {m3/s}
  ,                                       !- Heating Maximum Air Flow Fraction
  ,                                       !- Design Zone Air Distribution Effectiveness in Cooling Mode
  ,                                       !- Design Zone Air Distribution Effectiveness in Heating Mode
  No,                                     !- Account for Dedicated Outdoor Air System
  NeutralSupplyAir,                       !- Dedicated Outdoor Air System Control Strategy
  autosize,                               !- Dedicated Outdoor Air Low Setpoint Temperature for Design {C}
  autosize;                               !- Dedicated Outdoor Air High Setpoint Temperature for Design {C}

OS:ZoneHVAC:EquipmentList,
  {3b01c2fa-961f-4058-9439-9fe03300751e}, !- Handle
  Zone HVAC Equipment List 1,             !- Name
  {1cb130d7-ab06-4c6d-b3d5-e9bf1d09bd94}; !- Thermal Zone

OS:Space,
  {df8eb511-2ece-4d9d-9097-e5580f3e4b2f}, !- Handle
  North Perimeter Space - Story B1,       !- Name
  ,                                       !- Space Type Name
  ,                                       !- Default Construction Set Name
  ,                                       !- Default Schedule Set Name
  -0,                                     !- Direction of Relative North {deg}
  -39.3495107974674,                      !- X Origin {m}
  13.1165035991558,                       !- Y Origin {m}
  -3.9624,                                !- Z Origin {m}
  {d2c7dd61-de7b-497a-847f-b731ada3028f}, !- Building Story Name
  {0dda31e3-ec23-4102-b75d-90e142c9d7a7}; !- Thermal Zone Name

OS:Surface,
  {00261fc3-e431-4b48-b868-cd11dd10bb80}, !- Handle
  Surface 7,                              !- Name
  Floor,                                  !- Surface Type
  ,                                       !- Construction Name
  {df8eb511-2ece-4d9d-9097-e5580f3e4b2f}, !- Space Name
  Ground,                                 !- Outside Boundary Condition
  ,                                       !- Outside Boundary Condition Object
  NoSun,                                  !- Sun Exposure
  NoWind,                                 !- Wind Exposure
  ,                                       !- View Factor to Ground
  ,                                       !- Number of Vertices
  -4.9737991503207e-14, 1.4210854715202e-14, 0, !- X,Y,Z Vertex 1 {m}
  78.6990215949347, 1.4210854715202e-14, 0, !- X,Y,Z Vertex 2 {m}
  74.1270215949347, -4.572, 0,            !- X,Y,Z Vertex 3 {m}
  4.57199999999995, -4.572, 0;            !- X,Y,Z Vertex 4 {m}

OS:Surface,
  {3980539a-686d-4980-83b4-0a3c3dbba093}, !- Handle
  Surface 8,                              !- Name
  Wall,                                   !- Surface Type
  ,                                       !- Construction Name
  {df8eb511-2ece-4d9d-9097-e5580f3e4b2f}, !- Space Name
  Ground,                                 !- Outside Boundary Condition
  ,                                       !- Outside Boundary Condition Object
  NoSun,                                  !- Sun Exposure
  NoWind,                                 !- Wind Exposure
  ,                                       !- View Factor to Ground
  ,                                       !- Number of Vertices
  78.6990215949347, 1.4210854715202e-14, 3.9624, !- X,Y,Z Vertex 1 {m}
  78.6990215949347, 1.4210854715202e-14, 0, !- X,Y,Z Vertex 2 {m}
  -4.9737991503207e-14, 1.4210854715202e-14, 0, !- X,Y,Z Vertex 3 {m}
  -4.9737991503207e-14, 1.4210854715202e-14, 3.9624; !- X,Y,Z Vertex 4 {m}

OS:Surface,
  {bf44b7bb-dd32-41d9-b7ed-c1e602c85d6e}, !- Handle
  Surface 9,                              !- Name
  Wall,                                   !- Surface Type
  ,                                       !- Construction Name
  {df8eb511-2ece-4d9d-9097-e5580f3e4b2f}, !- Space Name
  Surface,                                !- Outside Boundary Condition
  {b64a783a-a5b9-4b36-bd7d-72439ab95788}, !- Outside Boundary Condition Object
  NoSun,                                  !- Sun Exposure
  NoWind,                                 !- Wind Exposure
  ,                                       !- View Factor to Ground
  ,                                       !- Number of Vertices
  74.1270215949347, -4.572, 3.9624,       !- X,Y,Z Vertex 1 {m}
  74.1270215949347, -4.572, 0,            !- X,Y,Z Vertex 2 {m}
  78.6990215949347, 1.4210854715202e-14, 0, !- X,Y,Z Vertex 3 {m}
  78.6990215949347, 1.4210854715202e-14, 3.9624; !- X,Y,Z Vertex 4 {m}

OS:Surface,
  {3e1e257d-2ffd-4d2a-a7fd-44afebe13cab}, !- Handle
  Surface 10,                             !- Name
  Wall,                                   !- Surface Type
  ,                                       !- Construction Name
  {df8eb511-2ece-4d9d-9097-e5580f3e4b2f}, !- Space Name
  Surface,                                !- Outside Boundary Condition
  {7dd0dac6-2102-4500-a9ff-3a152f42b02f}, !- Outside Boundary Condition Object
  NoSun,                                  !- Sun Exposure
  NoWind,                                 !- Wind Exposure
  ,                                       !- View Factor to Ground
  ,                                       !- Number of Vertices
  4.57199999999995, -4.572, 3.9624,       !- X,Y,Z Vertex 1 {m}
  4.57199999999995, -4.572, 0,            !- X,Y,Z Vertex 2 {m}
  74.1270215949347, -4.572, 0,            !- X,Y,Z Vertex 3 {m}
  74.1270215949347, -4.572, 3.9624;       !- X,Y,Z Vertex 4 {m}

OS:Surface,
  {804bdf78-3e76-4251-8364-bd95c8ce6565}, !- Handle
  Surface 11,                             !- Name
  Wall,                                   !- Surface Type
  ,                                       !- Construction Name
  {df8eb511-2ece-4d9d-9097-e5580f3e4b2f}, !- Space Name
  Surface,                                !- Outside Boundary Condition
  {87102942-95ad-4b0c-9f46-67239ceefe0e}, !- Outside Boundary Condition Object
  NoSun,                                  !- Sun Exposure
  NoWind,                                 !- Wind Exposure
  ,                                       !- View Factor to Ground
  ,                                       !- Number of Vertices
  -4.9737991503207e-14, 1.4210854715202e-14, 3.9624, !- X,Y,Z Vertex 1 {m}
  -4.9737991503207e-14, 1.4210854715202e-14, 0, !- X,Y,Z Vertex 2 {m}
  4.57199999999995, -4.572, 0,            !- X,Y,Z Vertex 3 {m}
  4.57199999999995, -4.572, 3.9624;       !- X,Y,Z Vertex 4 {m}

OS:Surface,
  {a6ac53a9-f2c7-413f-b8fc-c3d2a55be3cc}, !- Handle
  Surface 12,                             !- Name
  RoofCeiling,                            !- Surface Type
  ,                                       !- Construction Name
  {df8eb511-2ece-4d9d-9097-e5580f3e4b2f}, !- Space Name
  Surface,                                !- Outside Boundary Condition
  {63fd4444-8584-4953-a0d5-0d3fe9e95b79}, !- Outside Boundary Condition Object
  NoSun,                                  !- Sun Exposure
  NoWind,                                 !- Wind Exposure
  ,                                       !- View Factor to Ground
  ,                                       !- Number of Vertices
  4.57199999999995, -4.572, 3.9624,       !- X,Y,Z Vertex 1 {m}
  74.1270215949347, -4.572, 3.9624,       !- X,Y,Z Vertex 2 {m}