
OS:Version,
  {727cee28-f433-4ca0-94d5-e66ea00af4d2}, !- Handle
  2.8.0;                                  !- Version Identifier

OS:SpaceType,
  {30bcba41-c05a-4593-ae3b-c5ba2436d2e4}, !- Handle
  PrimarySchool Cafeteria,                !- Name
  ,                                       !- Default Construction Set Name
  ,                                       !- Default Schedule Set Name
  {04b32b9b-50b0-468e-9150-4d7e68fab934}, !- Group Rendering Name
  ,                                       !- Design Specification Outdoor Air Object Name
  ,                                       !- Standards Template
  PrimarySchool,                          !- Standards Building Type
  Cafeteria;                              !- Standards Space Type

OS:Rendering:Color,
  {04b32b9b-50b0-468e-9150-4d7e68fab934}, !- Handle
  PrimarySchool Cafeteria,                !- Name
  31,                                     !- Rendering Red Value
  169,                                    !- Rendering Green Value
  34;                                     !- Rendering Blue Value

OS:SpaceType,
  {7a0320a7-996e-4235-8838-d54ef2de9562}, !- Handle
  PrimarySchool Classroom,                !- Name
  ,                                       !- Default Construction Set Name
  ,                                       !- Default Schedule Set Name
  {f6404106-090a-4d46-b62d-06a8a7e0c3a1}, !- Group Rendering Name
  ,                                       !- Design Specification Outdoor Air Object Name
  ,                                       !- Standards Template
  PrimarySchool,                          !- Standards Building Type
  Classroom;                              !- Standards Space Type

OS:Rendering:Color,
  {f6404106-090a-4d46-b62d-06a8a7e0c3a1}, !- Handle
  PrimarySchool Classroom,                !- Name
  120,                                    !- Rendering Red Value
  230,                                    !- Rendering Green Value
  199;                                    !- Rendering Blue Value

OS:SpaceType,
  {079c887c-c057-4be8-8a9f-4423771c99f0}, !- Handle
  PrimarySchool Corridor,                 !- Name
  ,                                       !- Default Construction Set Name
  ,                                       !- Default Schedule Set Name
  {6a70a65f-b7ae-446b-96d3-01c65b69b107}, !- Group Rendering Name
  ,                                       !- Design Specification Outdoor Air Object Name
  ,                                       !- Standards Template
  PrimarySchool,                          !- Standards Building Type
  Corridor;                               !- Standards Space Type

OS:Rendering:Color,
  {6a70a65f-b7ae-446b-96d3-01c65b69b107}, !- Handle
  PrimarySchool Corridor,                 !- Name
  169,                                    !- Rendering Red Value
  31,                                     !- Rendering Green Value
  31;                                     !- Rendering Blue Value

OS:SpaceType,
  {53abf476-75a3-4181-93e2-6e19d470ed98}, !- Handle
  PrimarySchool Gym,                      !- Name
  ,                                       !- Default Construction Set Name
  ,                                       !- Default Schedule Set Name
  {8dc07c48-7f74-4d0b-852f-650ea44b5825}, !- Group Rendering Name
  ,                                       !- Design Specification Outdoor Air Object Name
  ,                                       !- Standards Template
  PrimarySchool,                          !- Standards Building Type
  Gym;                                    !- Standards Space Type

OS:Rendering:Color,
  {8dc07c48-7f74-4d0b-852f-650ea44b5825}, !- Handle
  PrimarySchool Gym,                      !- Name
  154,                                    !- Rendering Red Value
  230,                                    !- Rendering Green Value
  120;                                    !- Rendering Blue Value

OS:SpaceType,
  {6d0e413a-02ff-4a0f-9864-5843eafa4345}, !- Handle
  PrimarySchool Kitchen,                  !- Name
  ,                                       !- Default Construction Set Name
  ,                                       !- Default Schedule Set Name
  {f69afcdb-ff8a-45ca-9a5a-0dad5d760e2d}, !- Group Rendering Name
  ,                                       !- Design Specification Outdoor Air Object Name
  ,                                       !- Standards Template
  PrimarySchool,                          !- Standards Building Type
  Kitchen;                                !- Standards Space Type

OS:Rendering:Color,
  {f69afcdb-ff8a-45ca-9a5a-0dad5d760e2d}, !- Handle
  PrimarySchool Kitchen,                  !- Name
  78,                                     !- Rendering Red Value
  222,                                    !- Rendering Green Value
  133;                                    !- Rendering Blue Value

OS:SpaceType,
  {6c5a92ef-75d0-4064-a301-581891c28da1}, !- Handle
  PrimarySchool Library,                  !- Name
  ,                                       !- Default Construction Set Name
  ,                                       !- Default Schedule Set Name
  {54d60feb-8f66-41d0-a788-ea00d084c963}, !- Group Rendering Name
  ,                                       !- Design Specification Outdoor Air Object Name
  ,                                       !- Standards Template
  PrimarySchool,                          !- Standards Building Type
  Library;                                !- Standards Space Type

OS:Rendering:Color,
  {54d60feb-8f66-41d0-a788-ea00d084c963}, !- Handle
  PrimarySchool Library,                  !- Name
  230,                                    !- Rendering Red Value
  196,                                    !- Rendering Green Value
  120;                                    !- Rendering Blue Value

OS:SpaceType,
  {4edd2f6a-ba56-4027-9d54-1b75a2057d10}, !- Handle
  PrimarySchool Lobby,                    !- Name
  ,                                       !- Default Construction Set Name
  ,                                       !- Default Schedule Set Name
  {4dc3f51f-e795-40de-8c74-abd035d2efb4}, !- Group Rendering Name
  ,                                       !- Design Specification Outdoor Air Object Name
  ,                                       !- Standards Template
  PrimarySchool,                          !- Standards Building Type
  Lobby;                                  !- Standards Space Type

OS:Rendering:Color,
  {4dc3f51f-e795-40de-8c74-abd035d2efb4}, !- Handle
  PrimarySchool Lobby,                    !- Name
  230,                                    !- Rendering Red Value
  157,                                    !- Rendering Green Value
  120;                                    !- Rendering Blue Value

OS:SpaceType,
  {bfe0bfd7-cfce-4879-b0f4-0bad07fc2493}, !- Handle
  PrimarySchool Mechanical,               !- Name
  ,                                       !- Default Construction Set Name
  ,                                       !- Default Schedule Set Name
  {38dcb570-2419-4330-a3a0-eb21b92b4c9b}, !- Group Rendering Name
  ,                                       !- Design Specification Outdoor Air Object Name
  ,                                       !- Standards Template
  PrimarySchool,                          !- Standards Building Type
  Mechanical;                             !- Standards Space Type

OS:Rendering:Color,
  {38dcb570-2419-4330-a3a0-eb21b92b4c9b}, !- Handle
  PrimarySchool Mechanical,               !- Name
  41,                                     !- Rendering Red Value
  31,                                     !- Rendering Green Value
  169;                                    !- Rendering Blue Value

OS:SpaceType,
  {cc69948b-afd2-42e5-a520-27040582a9b7}, !- Handle
  PrimarySchool Office,                   !- Name
  ,                                       !- Default Construction Set Name
  ,                                       !- Default Schedule Set Name
  {24bf30ae-c18a-46e1-881c-acfa745a3b03}, !- Group Rendering Name
  ,                                       !- Design Specification Outdoor Air Object Name
  ,                                       !- Standards Template
  PrimarySchool,                          !- Standards Building Type
  Office;                                 !- Standards Space Type

OS:Rendering:Color,
  {24bf30ae-c18a-46e1-881c-acfa745a3b03}, !- Handle
  PrimarySchool Office,                   !- Name
  120,                                    !- Rendering Red Value
  230,                                    !- Rendering Green Value
  199;                                    !- Rendering Blue Value

OS:SpaceType,
  {b9ec2d1d-5597-44fb-8c62-29f93524fcee}, !- Handle
  PrimarySchool Restroom,                 !- Name
  ,                                       !- Default Construction Set Name
  ,                                       !- Default Schedule Set Name
  {b8c527a3-7af5-4af9-8e3e-3c8e49ab321c}, !- Group Rendering Name
  ,                                       !- Design Specification Outdoor Air Object Name
  ,                                       !- Standards Template
  PrimarySchool,                          !- Standards Building Type
  Restroom;                               !- Standards Space Type

OS:Rendering:Color,
  {b8c527a3-7af5-4af9-8e3e-3c8e49ab321c}, !- Handle
  PrimarySchool Restroom,                 !- Name
  169,                                    !- Rendering Red Value
  169,                                    !- Rendering Green Value
  31;                                     !- Rendering Blue Value

OS:Building,
  {31d8fd96-224b-4fa7-a6ef-bb35a63c77c0}, !- Handle
  90.1-2004|PrimarySchool,                !- Name
  ,                                       !- Building Sector Type
  ,                                       !- North Axis {deg}
  ,                                       !- Nominal Floor to Floor Height {m}
  ,                                       !- Space Type Name
  ,                                       !- Default Construction Set Name
  ;                                       !- Default Schedule Set Name

OS:Site,
  {dd63774d-6c2d-41f6-a4a7-9a9e023c6419}, !- Handle
  Site 1,                                 !- Name
  ,                                       !- Latitude {deg}
  ,                                       !- Longitude {deg}
  ,                                       !- Time Zone {hr}
  ,                                       !- Elevation {m}
  ;                                       !- Terrain

OS:BuildingStory,
  {38e2dbf2-8593-456c-bd2b-6065e13c275a}, !- Handle
  Story Ground,                           !- Name
  0,                                      !- Nominal Z Coordinate {m}
  3.9624,                                 !- Nominal Floor to Floor Height {m}
  ,                                       !- Default Construction Set Name
  ,                                       !- Default Schedule Set Name
  ;                                       !- Group Rendering Name

OS:Space,
  {42c82ef8-b5e7-4792-b8d7-56601e84ce10}, !- Handle
  PrimarySchool Corridor A end_a - Story Ground, !- Name
  {079c887c-c057-4be8-8a9f-4423771c99f0}, !- Space Type Name
  ,                                       !- Default Construction Set Name
  ,                                       !- Default Schedule Set Name
  -0,                                     !- Direction of Relative North {deg}
  -13.1982271536748,                      !- X Origin {m}
  -8.7988181024499,                       !- Y Origin {m}
  0,                                      !- Z Origin {m}
  {38e2dbf2-8593-456c-bd2b-6065e13c275a}, !- Building Story Name
  {91a5d2ca-5372-4e78-9bb9-f0c4f2a240e1}; !- Thermal Zone Name

OS:Surface,
  {5401250f-76de-4ec4-a969-ce93502a350b}, !- Handle
  Surface 1,                              !- Name
  Floor,                                  !- Surface Type
  ,                                       !- Construction Name
  {42c82ef8-b5e7-4792-b8d7-56601e84ce10}, !- Space Name
  Ground,                                 !- Outside Boundary Condition
  ,                                       !- Outside Boundary Condition Object
  NoSun,                                  !- Sun Exposure
  NoWind,                                 !- Wind Exposure
  ,                                       !- View Factor to Ground
  ,                                       !- Number of Vertices
  4.61852778244065e-14, -3.5527136788005e-15, 0, !- X,Y,Z Vertex 1 {m}
  4.61852778244065e-14, 4.572, 0,         !- X,Y,Z Vertex 2 {m}
  4.572, 4.572, 0,                        !- X,Y,Z Vertex 3 {m}
  4.572, -3.5527136788005e-15, 0;         !- X,Y,Z Vertex 4 {m}

OS:Surface,
  {c6ef2331-1372-4780-87eb-b64210dc5fb5}, !- Handle
  Surface 2,                              !- Name
  Wall,                                   !- Surface Type
  ,                                       !- Construction Name
  {42c82ef8-b5e7-4792-b8d7-56601e84ce10}, !- Space Name
  Outdoors,                               !- Outside Boundary Condition
  ,                                       !- Outside Boundary Condition Object
  SunExposed,                             !- Sun Exposure
  WindExposed,                            !- Wind Exposure
  ,                                       !- View Factor to Ground
  ,                                       !- Number of Vertices
  4.61852778244065e-14, 4.572, 3.9624,    !- X,Y,Z Vertex 1 {m}
  4.61852778244065e-14, 4.572, 0,         !- X,Y,Z Vertex 2 {m}
  4.61852778244065e-14, -3.5527136788005e-15, 0, !- X,Y,Z Vertex 3 {m}
  4.61852778244065e-14, -3.5527136788005e-15, 3.9624; !- X,Y,Z Vertex 4 {m}

OS:Surface,
  {6e35b330-63b3-41ad-abb8-238d90168281}, !- Handle
  Surface 3,                              !- Name
  Wall,                                   !- Surface Type
  ,                                       !- Construction Name
  {42c82ef8-b5e7-4792-b8d7-56601e84ce10}, !- Space Name
  Surface,                                !- Outside Boundary Condition
  {fb2a43a4-ca50-42f9-8d0a-35beb96694fe}, !- Outside Boundary Condition Object
  NoSun,                                  !- Sun Exposure
  NoWind,                                 !- Wind Exposure
  ,                                       !- View Factor to Ground
  ,                                       !- Number of Vertices
  4.572, 4.572, 3.9624,                   !- X,Y,Z Vertex 1 {m}
  4.572, 4.572, 0,                        !- X,Y,Z Vertex 2 {m}
  4.61852778244065e-14, 4.572, 0,         !- X,Y,Z Vertex 3 {m}
  4.61852778244065e-14, 4.572, 3.9624;    !- X,Y,Z Vertex 4 {m}

OS:Surface,
  {cb44fb52-86f8-47be-9629-78170f820c59}, !- Handle
  Surface 4,                              !- Name
  Wall,                                   !- Surface Type
  ,                                       !- Construction Name
  {42c82ef8-b5e7-4792-b8d7-56601e84ce10}, !- Space Name
  Surface,                                !- Outside Boundary Condition
  {53a60206-5b23-4fbb-8707-847fffb385d8}, !- Outside Boundary Condition Object
  NoSun,                                  !- Sun Exposure
  NoWind,                                 !- Wind Exposure
  ,                                       !- View Factor to Ground
  ,                                       !- Number of Vertices
  4.572, -3.5527136788005e-15, 3.9624,    !- X,Y,Z Vertex 1 {m}
  4.572, -3.5527136788005e-15, 0,         !- X,Y,Z Vertex 2 {m}
  4.572, 4.572, 0,                        !- X,Y,Z Vertex 3 {m}
  4.572, 4.572, 3.9624;                   !- X,Y,Z Vertex 4 {m}

OS:Surface,
  {79ba7da9-9a42-4bcb-b11f-069a68d34320}, !- Handle
  Surface 5,                              !- Name
  Wall,                                   !- Surface Type
  ,                                       !- Construction Name
  {42c82ef8-b5e7-4792-b8d7-56601e84ce10}, !- Space Name
  Outdoors,                               !- Outside Boundary Condition
  ,                                       !- Outside Boundary Condition Object
  SunExposed,                             !- Sun Exposure
  WindExposed,                            !- Wind Exposure
  ,                                       !- View Factor to Ground
  ,                                       !- Number of Vertices
  4.61852778244065e-14, -3.5527136788005e-15, 3.9624, !- X,Y,Z Vertex 1 {m}
  4.61852778244065e-14, -3.5527136788005e-15, 0, !- X,Y,Z Vertex 2 {m}
  4.572, -3.5527136788005e-15, 0,         !- X,Y,Z Vertex 3 {m}
  4.572, -3.5527136788005e-15, 3.9624;    !- X,Y,Z Vertex 4 {m}

OS:Surface,
  {d385852e-0299-4ad1-b4d8-d21d3fdbb21a}, !- Handle
  Surface 6,                              !- Name
  RoofCeiling,                            !- Surface Type
  ,                                       !- Construction Name
  {42c82ef8-b5e7-4792-b8d7-56601e84ce10}, !- Space Name
  Surface,                                !- Outside Boundary Condition
  {5a1b9439-a822-4c6d-a7d0-fc51e0a968b2}, !- Outside Boundary Condition Object
  NoSun,                                  !- Sun Exposure
  NoWind,                                 !- Wind Exposure
  ,                                       !- View Factor to Ground
  ,                                       !- Number of Vertices
  4.572, -3.5527136788005e-15, 3.9624,    !- X,Y,Z Vertex 1 {m}
  4.572, 4.572, 3.9624,                   !- X,Y,Z Vertex 2 {m}
  4.61852778244065e-14, 4.572, 3.9624,    !- X,Y,Z Vertex 3 {m}
  4.61852778244065e-14, -3.5527136788005e-15, 3.9624; !- X,Y,Z Vertex 4 {m}

OS:ThermalZone,
  {91a5d2ca-5372-4e78-9bb9-f0c4f2a240e1}, !- Handle
  Zone PrimarySchool Corridor A end_a - Story Ground, !- Name
  1,                                      !- Multiplier
  ,                                       !- Ceiling Height {m}
  ,                                       !- Volume {m3}
  ,                                       !- Floor Area {m2}
  ,                                       !- Zone Inside Convection Algorithm
  ,                                       !- Zone Outside Convection Algorithm
  ,                                       !- Zone Conditioning Equipment List Name
  {f840f29a-c7c2-4c68-8467-58af0b75466e}, !- Zone Air Inlet Port List
  {2909fabe-de0b-4115-8f6f-fa9d19da22fb}, !- Zone Air Exhaust Port List
  {4d5c1e81-1d28-4c83-961c-06c48156d466}, !- Zone Air Node Name
  {ba8bc007-6cf7-4fbe-b2bb-f58b1c6f53c0}, !- Zone Return Air Port List
  ,                                       !- Primary Daylighting Control Name
  ,                                       !- Fraction of Zone Controlled by Primary Daylighting Control
  ,                                       !- Secondary Daylighting Control Name
  ,                                       !- Fraction of Zone Controlled by Secondary Daylighting Control
  ,                                       !- Illuminance Map Name
  ,                                       !- Group Rendering Name
  ,                                       !- Thermostat Name
  No;                                     !- Use Ideal Air Loads

OS:Node,
  {f77935f5-d970-49eb-89ec-272e98e4d394}, !- Handle
  Node 1,                                 !- Name
  {4d5c1e81-1d28-4c83-961c-06c48156d466}, !- Inlet Port
  ;                                       !- Outlet Port

OS:Connection,
  {4d5c1e81-1d28-4c83-961c-06c48156d466}, !- Handle
  {8d4b23ea-e41a-4b8c-b563-9cde08cdaf0c}, !- Name
  {91a5d2ca-5372-4e78-9bb9-f0c4f2a240e1}, !- Source Object
  11,                                     !- Outlet Port
  {f77935f5-d970-49eb-89ec-272e98e4d394}, !- Target Object
  2;                                      !- Inlet Port

OS:PortList,
  {f840f29a-c7c2-4c68-8467-58af0b75466e}, !- Handle
  {9012be85-79a9-4a0a-8868-2776bca5033c}, !- Name
  {91a5d2ca-5372-4e78-9bb9-f0c4f2a240e1}; !- HVAC Component

OS:PortList,
  {2909fabe-de0b-4115-8f6f-fa9d19da22fb}, !- Handle
  {1bba863a-cf62-4a9e-837e-819df5527403}, !- Name
  {91a5d2ca-5372-4e78-9bb9-f0c4f2a240e1}; !- HVAC Component

OS:PortList,
  {ba8bc007-6cf7-4fbe-b2bb-f58b1c6f53c0}, !- Handle
  {0a4876c9-649b-43de-9358-63b1467d8ba9}, !- Name
  {91a5d2ca-5372-4e78-9bb9-f0c4f2a240e1}; !- HVAC Component

OS:Sizing:Zone,
  {90682de5-cd23-4607-947b-30609aadb854}, !- Handle
  {91a5d2ca-5372-4e78-9bb9-f0c4f2a240e1}, !- Zone or ZoneList Name
  SupplyAirTemperature,                   !- Zone Cooling Design Supply Air Temperature Input Method
  14,                                     !- Zone Cooling Design Supply Air Temperature {C}
  11.11,                                  !- Zone Cooling Design Supply Air Temperature Difference {deltaC}
  SupplyAirTemperature,                   !- Zone Heating Design Supply Air Temperature Input Method
  40,                                     !- Zone Heating Design Supply Air Temperature {C}
  11.11,                                  !- Zone Heating Design Supply Air Temperature Difference {deltaC}
  0.0085,                                 !- Zone Cooling Design Supply Air Humidity Ratio {kg-H2O/kg-air}
  0.008,                                  !- Zone Heating Design Supply Air Humidity Ratio {kg-H2O/kg-air}
  ,                                       !- Zone Heating Sizing Factor
  ,                                       !- Zone Cooling Sizing Factor
  DesignDay,                              !- Cooling Design Air Flow Method
  ,                                       !- Cooling Design Air Flow Rate {m3/s}
  ,                                       !- Cooling Minimum Air Flow per Zone Floor Area {m3/s-m2}
  ,                                       !- Cooling Minimum Air Flow {m3/s}
  ,                                       !- Cooling Minimum Air Flow Fraction
  DesignDay,                              !- Heating Design Air Flow Method
  ,                                       !- Heating Design Air Flow Rate {m3/s}
  ,                                       !- Heating Maximum Air Flow per Zone Floor Area {m3/s-m2}
  ,                                       !- Heating Maximum Air Flow {m3/s}
  ,                                       !- Heating Maximum Air Flow Fraction
  ,                                       !- Design Zone Air Distribution Effectiveness in Cooling Mode
  ,                                       !- Design Zone Air Distribution Effectiveness in Heating Mode
  No,                                     !- Account for Dedicated Outdoor Air System
  NeutralSupplyAir,                       !- Dedicated Outdoor Air System Control Strategy
  autosize,                               !- Dedicated Outdoor Air Low Setpoint Temperature for Design {C}
  autosize;                               !- Dedicated Outdoor Air High Setpoint Temperature for Design {C}

OS:ZoneHVAC:EquipmentList,
  {6d12c8af-2fa8-4013-a2bb-a07fa1efe5de}, !- Handle
  Zone HVAC Equipment List 1,             !- Name
  {91a5d2ca-5372-4e78-9bb9-f0c4f2a240e1}; !- Thermal Zone

OS:Space,
  {9352c4c4-2755-4de8-9ceb-458eb5d958ef}, !- Handle
  PrimarySchool Corridor B end_a - Story Ground, !- Name
  {079c887c-c057-4be8-8a9f-4423771c99f0}, !- Space Type Name
  ,                                       !- Default Construction Set Name
  ,                                       !- Default Schedule Set Name
  -0,                                     !- Direction of Relative North {deg}
  -13.1982271536748,                      !- X Origin {m}
  -4.2268181024499,                       !- Y Origin {m}
  0,                                      !- Z Origin {m}
  {38e2dbf2-8593-456c-bd2b-6065e13c275a}, !- Building Story Name
  {4b2903bc-31f5-42d1-ba63-e383d559d8f2}; !- Thermal Zone Name

OS:Surface,
  {d5a67f9f-b37b-42a9-aed5-5e5f30ab5c76}, !- Handle
  Surface 7,                              !- Name
  Floor,                                  !- Surface Type
  ,                                       !- Construction Name
  {9352c4c4-2755-4de8-9ceb-458eb5d958ef}, !- Space Name
  Ground,                                 !- Outside Boundary Condition
  ,                                       !- Outside Boundary Condition Object
  NoSun,                                  !- Sun Exposure
  NoWind,                                 !- Wind Exposure
  ,                                       !- View Factor to Ground
  ,                                       !- Number of Vertices
  4.61852778244065e-14, -3.5527136788005e-15, 0, !- X,Y,Z Vertex 1 {m}
  4.61852778244065e-14, 8.4536362048998, 0, !- X,Y,Z Vertex 2 {m}
  4.572, 8.4536362048998, 0,              !- X,Y,Z Vertex 3 {m}
  4.572, -3.5527136788005e-15, 0;         !- X,Y,Z Vertex 4 {m}

OS:Surface,
  {3d753870-76b4-4a66-85b3-e0f7d4adb73a}, !- Handle
  Surface 8,                              !- Name
  Wall,                                   !- Surface Type
  ,                                       !- Construction Name
  {9352c4c4-2755-4de8-9ceb-458eb5d958ef}, !- Space Name
  Outdoors,                               !- Outside Boundary Condition
  ,                                       !- Outside Boundary Condition Object
  SunExposed,                             !- Sun Exposure
  WindExposed,                            !- Wind Exposure
  ,                                       !- View Factor to Ground
  ,                                       !- Number of Vertices
  4.61852778244065e-14, 8.4536362048998, 3.9624, !- X,Y,Z Vertex 1 {m}
  4.61852778244065e-14, 8.4536362048998, 0, !- X,Y,Z Vertex 2 {m}
  4.61852778244065e-14, -3.5527136788005e-15, 0, !- X,Y,Z Vertex 3 {m}
  4.61852778244065e-14, -3.5527136788005e-15, 3.9624; !- X,Y,Z Vertex 4 {m}

OS:Surface,
  {898729aa-7f14-489d-9ef7-c6e90e771e53}, !- Handle
  Surface 9,                              !- Name
  Wall,                                   !- Surface Type
  ,                                       !- Construction Name
  {9352c4c4-2755-4de8-9ceb-458eb5d958ef}, !- Space Name
  Surface,                                !- Outside Boundary Condition
  {616bdbe7-8f37-4a74-b4a1-466387acacde}, !- Outside Boundary Condition Object
  NoSun,                                  !- Sun Exposure
  NoWind,                                 !- Wind Exposure
  ,                                       !- View Factor to Ground
  ,                                       !- Number of Vertices
  4.572, 8.4536362048998, 3.9624,         !- X,Y,Z Vertex 1 {m}
  4.572, 8.4536362048998, 0,              !- X,Y,Z Vertex 2 {m}
  4.61852778244065e-14, 8.4536362048998, 0, !- X,Y,Z Vertex 3 {m}
  4.61852778244065e-14, 8.4536362048998, 3.9624; !- X,Y,Z Vertex 4 {m}

OS:Surface,
  {c714aa3a-81b9-49a9-bb9e-03fb6934fa17}, !- Handle
  Surface 10,                             !- Name
  Wall,                                   !- Surface Type
  ,                                       !- Construction Name
  {9352c4c4-2755-4de8-9ceb-458eb5d958ef}, !- Space Name
  Surface,                                !- Outside Boundary Condition
  {164cdd43-ec29-4856-a587-e0afcd6b3ab5}, !- Outside Boundary Condition Object
  NoSun,                                  !- Sun Exposure
  NoWind,                                 !- Wind Exposure
  ,                                       !- View Factor to Ground
  ,                                       !- Number of Vertices
  4.572, -3.5527136788005e-15, 3.9624,    !- X,Y,Z Vertex 1 {m}
  4.572, -3.5527136788005e-15, 0,         !- X,Y,Z Vertex 2 {m}
  4.572, 8.4536362048998, 0,              !- X,Y,Z Vertex 3 {m}
  4.572, 8.4536362048998, 3.9624;         !- X,Y,Z Vertex 4 {m}

OS:Surface,
  {fb2a43a4-ca50-42f9-8d0a-35beb96694fe}, !- Handle
  Surface 11,                             !- Name
  Wall,                                   !- Surface Type
  ,                                       !- Construction Name
  {9352c4c4-2755-4de8-9ceb-458eb5d958ef}, !- Space Name
  Surface,                                !- Outside Boundary Condition
  {6e35b330-63b3-41ad-abb8-238d90168281}, !- Outside Boundary Condition Object
  NoSun,                                  !- Sun Exposure
  NoWind,                                 !- Wind Exposure
  ,                                       !- View Factor to Ground
  ,                                       !- Number of Vertices
  4.61852778244065e-14, -3.5527136788005e-15, 3.9624, !- X,Y,Z Vertex 1 {m}
  4.61852778244065e-14, -3.5527136788005e-15, 0, !- X,Y,Z Vertex 2 {m}
  4.572, -3.5527136788005e-15, 0,         !- X,Y,Z Vertex 3 {m}
  4.572, -3.5527136788005e-15, 3.9624;    !- X,Y,Z Vertex 4 {m}

OS:Surface,
  {45cd2e2c-21c8-4508-b708-79c28cfce830}, !- Handle
  Surface 12,                             !- Name
  RoofCeiling,                            !- Surface Type
  ,                                       !- Construction Name
  {9352c4c4-2755-4de8-9ceb-458eb5d958ef}, !- Space Name
  Surface,                                !- Outside Boundary Condition
  {47597df6-56f0-46ca-9deb-661f42df35f8}, !- Outside Boundary Condition Object
  NoSun,                                  !- Sun Exposure
  NoWind,                                 !- Wind Exposure
  ,                                       !- View Factor to Ground
  ,                                       !- Number of Vertices
  4.572, -3.5527136788005e-15, 3.9624,    !- X,Y,Z Vertex 1 {m}
  4.572, 8.4536362048998, 3.9624,         !- X,Y,Z Vertex 2 {m}
  4.61852778244065e-14, 8.4536362048998, 3.9624, !- X,Y,Z Vertex 3 {m}
  4.61852778244065e-14, -3.5527136788005e-15, 3.9624; !- X,Y,Z Vertex 4 {m}

OS:ThermalZone,
  {4b2903bc-31f5-42d1-ba63-e383d559d8f2}, !- Handle
  Zone PrimarySchool Corridor B end_a - Story Ground, !- Name
  1,                                      !- Multiplier
  ,                                       !- Ceiling Height {m}
  ,                                       !- Volume {m3}
  ,                                       !- Floor Area {m2}
  ,                                       !- Zone Inside Convection Algorithm
  ,                                       !- Zone Outside Convection Algorithm
  ,                                       !- Zone Conditioning Equipment List Name
  {37c053d6-bfec-459f-82f2-8319f0184971}, !- Zone Air Inlet Port List
  {2dfd19e9-7829-47cb-8db8-65d355037f89}, !- Zone Air Exhaust Port List
  {07ab38b0-4881-4735-9eb5-b800d92f5c76}, !- Zone Air Node Name