
OS:Version,
  {95e909c1-59c9-48f2-9075-a946b5286117}, !- Handle
  2.8.0;                                  !- Version Identifier

OS:SpaceType,
  {ef61c15d-5ddb-4064-b9bc-b2f71fa14c4c}, !- Handle
  LargeHotel Banquet,                     !- Name
  ,                                       !- Default Construction Set Name
  ,                                       !- Default Schedule Set Name
  {f1224887-4a13-4457-8a4d-250555fd261a}, !- Group Rendering Name
  ,                                       !- Design Specification Outdoor Air Object Name
  ,                                       !- Standards Template
  LargeHotel,                             !- Standards Building Type
  Banquet;                                !- Standards Space Type

OS:Rendering:Color,
  {f1224887-4a13-4457-8a4d-250555fd261a}, !- Handle
  LargeHotel Banquet,                     !- Name
  230,                                    !- Rendering Red Value
  196,                                    !- Rendering Green Value
  120;                                    !- Rendering Blue Value

OS:SpaceType,
  {3c226d6e-2828-4d3f-a9b9-8e7a003ec5f7}, !- Handle
  LargeHotel Cafe,                        !- Name
  ,                                       !- Default Construction Set Name
  ,                                       !- Default Schedule Set Name
  {2ce7cea8-d101-49dc-a30a-2aa5280db122}, !- Group Rendering Name
  ,                                       !- Design Specification Outdoor Air Object Name
  ,                                       !- Standards Template
  LargeHotel,                             !- Standards Building Type
  Cafe;                                   !- Standards Space Type

OS:Rendering:Color,
  {2ce7cea8-d101-49dc-a30a-2aa5280db122}, !- Handle
  LargeHotel Cafe,                        !- Name
  31,                                     !- Rendering Red Value
  169,                                    !- Rendering Green Value
  34;                                     !- Rendering Blue Value

OS:SpaceType,
  {2e9cc5d0-dfe7-4817-a44a-26db980bc258}, !- Handle
  LargeHotel Corridor,                    !- Name
  ,                                       !- Default Construction Set Name
  ,                                       !- Default Schedule Set Name
  {fb1285f7-0e4a-40ee-8a72-62549add32cd}, !- Group Rendering Name
  ,                                       !- Design Specification Outdoor Air Object Name
  ,                                       !- Standards Template
  LargeHotel,                             !- Standards Building Type
  Corridor;                               !- Standards Space Type

OS:Rendering:Color,
  {fb1285f7-0e4a-40ee-8a72-62549add32cd}, !- Handle
  LargeHotel Corridor,                    !- Name
  169,                                    !- Rendering Red Value
  31,                                     !- Rendering Green Value
  31;                                     !- Rendering Blue Value

OS:SpaceType,
  {3989d2c4-a910-43a1-bf61-20d1212bc57f}, !- Handle
  LargeHotel GuestRoom,                   !- Name
  ,                                       !- Default Construction Set Name
  ,                                       !- Default Schedule Set Name
  {c4327dd0-8ae8-4b17-aa0c-14269b0bc4bb}, !- Group Rendering Name
  ,                                       !- Design Specification Outdoor Air Object Name
  ,                                       !- Standards Template
  LargeHotel,                             !- Standards Building Type
  GuestRoom;                              !- Standards Space Type

OS:Rendering:Color,
  {c4327dd0-8ae8-4b17-aa0c-14269b0bc4bb}, !- Handle
  LargeHotel GuestRoom,                   !- Name
  78,                                     !- Rendering Red Value
  167,                                    !- Rendering Green Value
  222;                                    !- Rendering Blue Value

OS:SpaceType,
  {ba0caead-96d7-4cc2-af1d-30f7e379ca9b}, !- Handle
  LargeHotel Kitchen,                     !- Name
  ,                                       !- Default Construction Set Name
  ,                                       !- Default Schedule Set Name
  {58ed865b-b8bf-4e2c-9b53-974a782acf38}, !- Group Rendering Name
  ,                                       !- Design Specification Outdoor Air Object Name
  ,                                       !- Standards Template
  LargeHotel,                             !- Standards Building Type
  Kitchen;                                !- Standards Space Type

OS:Rendering:Color,
  {58ed865b-b8bf-4e2c-9b53-974a782acf38}, !- Handle
  LargeHotel Kitchen,                     !- Name
  78,                                     !- Rendering Red Value
  222,                                    !- Rendering Green Value
  133;                                    !- Rendering Blue Value

OS:SpaceType,
  {fcfda3c5-2aab-4b6e-9f4d-86b5a03610dc}, !- Handle
  LargeHotel Laundry,                     !- Name
  ,                                       !- Default Construction Set Name
  ,                                       !- Default Schedule Set Name
  {0f9f9db3-6f87-4d08-9154-0204da67cf99}, !- Group Rendering Name
  ,                                       !- Design Specification Outdoor Air Object Name
  ,                                       !- Standards Template
  LargeHotel,                             !- Standards Building Type
  Laundry;                                !- Standards Space Type

OS:Rendering:Color,
  {0f9f9db3-6f87-4d08-9154-0204da67cf99}, !- Handle
  LargeHotel Laundry,                     !- Name
  120,                                    !- Rendering Red Value
  149,                                    !- Rendering Green Value
  230;                                    !- Rendering Blue Value

OS:SpaceType,
  {c7cc8899-a319-4692-9514-8cc517d29591}, !- Handle
  LargeHotel Lobby,                       !- Name
  ,                                       !- Default Construction Set Name
  ,                                       !- Default Schedule Set Name
  {e40b35ba-9648-4cc0-b432-f15cc30eba64}, !- Group Rendering Name
  ,                                       !- Design Specification Outdoor Air Object Name
  ,                                       !- Standards Template
  LargeHotel,                             !- Standards Building Type
  Lobby;                                  !- Standards Space Type

OS:Rendering:Color,
  {e40b35ba-9648-4cc0-b432-f15cc30eba64}, !- Handle
  LargeHotel Lobby,                       !- Name
  230,                                    !- Rendering Red Value
  157,                                    !- Rendering Green Value
  120;                                    !- Rendering Blue Value

OS:SpaceType,
  {42847d4f-b90a-421c-96d9-9a3751272eb7}, !- Handle
  LargeHotel Mechanical,                  !- Name
  ,                                       !- Default Construction Set Name
  ,                                       !- Default Schedule Set Name
  {d93b635d-69a0-49ce-aefb-ff9813083477}, !- Group Rendering Name
  ,                                       !- Design Specification Outdoor Air Object Name
  ,                                       !- Standards Template
  LargeHotel,                             !- Standards Building Type
  Mechanical;                             !- Standards Space Type

OS:Rendering:Color,
  {d93b635d-69a0-49ce-aefb-ff9813083477}, !- Handle
  LargeHotel Mechanical,                  !- Name
  41,                                     !- Rendering Red Value
  31,                                     !- Rendering Green Value
  169;                                    !- Rendering Blue Value

OS:SpaceType,
  {679890d6-0593-4cf6-8ed1-b1e97aa464bf}, !- Handle
  LargeHotel Retail,                      !- Name
  ,                                       !- Default Construction Set Name
  ,                                       !- Default Schedule Set Name
  {4211a2a6-2991-484c-b4db-36bbb8c1510f}, !- Group Rendering Name
  ,                                       !- Design Specification Outdoor Air Object Name
  ,                                       !- Standards Template
  LargeHotel,                             !- Standards Building Type
  Retail;                                 !- Standards Space Type

OS:Rendering:Color,
  {4211a2a6-2991-484c-b4db-36bbb8c1510f}, !- Handle
  LargeHotel Retail,                      !- Name
  171,                                    !- Rendering Red Value
  222,                                    !- Rendering Green Value
  78;                                     !- Rendering Blue Value

OS:SpaceType,
  {9d9fc212-d269-4ca5-a692-bfebabc8dda1}, !- Handle
  LargeHotel Storage,                     !- Name
  ,                                       !- Default Construction Set Name
  ,                                       !- Default Schedule Set Name
  {a94b5c35-1051-41e8-b186-e6ce0faf8525}, !- Group Rendering Name
  ,                                       !- Design Specification Outdoor Air Object Name
  ,                                       !- Standards Template
  LargeHotel,                             !- Standards Building Type
  Storage;                                !- Standards Space Type

OS:Rendering:Color,
  {a94b5c35-1051-41e8-b186-e6ce0faf8525}, !- Handle
  LargeHotel Storage,                     !- Name
  120,                                    !- Rendering Red Value
  149,                                    !- Rendering Green Value
  230;                                    !- Rendering Blue Value

OS:Building,
  {8cc7dbc3-0d1b-450f-8964-ae9d0bdf64db}, !- Handle
  90.1-2004|LargeHotel,                   !- Name
  ,                                       !- Building Sector Type
  ,                                       !- North Axis {deg}
  ,                                       !- Nominal Floor to Floor Height {m}
  ,                                       !- Space Type Name
  ,                                       !- Default Construction Set Name
  ;                                       !- Default Schedule Set Name

OS:Site,
  {57d7b88c-1773-4595-a40c-6d03e05b013e}, !- Handle
  Site 1,                                 !- Name
  ,                                       !- Latitude {deg}
  ,                                       !- Longitude {deg}
  ,                                       !- Time Zone {hr}
  ,                                       !- Elevation {m}
  ;                                       !- Terrain

OS:BuildingStory,
  {2170bdf2-097d-4fcb-ab32-f693a92d1c06}, !- Handle
  Story Ground,                           !- Name
  0,                                      !- Nominal Z Coordinate {m}
  3.048,                                  !- Nominal Floor to Floor Height {m}
  ,                                       !- Default Construction Set Name
  ,                                       !- Default Schedule Set Name
  ;                                       !- Group Rendering Name

OS:Space,
  {ee1825f5-b5d0-473d-8cc6-c4bde49a4daf}, !- Handle
  LargeHotel Banquet A end_a - Story Ground, !- Name
  {ef61c15d-5ddb-4064-b9bc-b2f71fa14c4c}, !- Space Type Name
  ,                                       !- Default Construction Set Name
  ,                                       !- Default Schedule Set Name
  -0,                                     !- Direction of Relative North {deg}
  -29.3507163920623,                      !- X Origin {m}
  -5.75504242981613,                      !- Y Origin {m}
  0,                                      !- Z Origin {m}
  {2170bdf2-097d-4fcb-ab32-f693a92d1c06}, !- Building Story Name
  {71418c74-fa10-4e08-93ef-4517f2000e7e}; !- Thermal Zone Name

OS:Surface,
  {86fadbd3-5f7a-4423-9a23-febf7c41c39b}, !- Handle
  Surface 1,                              !- Name
  Floor,                                  !- Surface Type
  ,                                       !- Construction Name
  {ee1825f5-b5d0-473d-8cc6-c4bde49a4daf}, !- Space Name
  Ground,                                 !- Outside Boundary Condition
  ,                                       !- Outside Boundary Condition Object
  NoSun,                                  !- Sun Exposure
  NoWind,                                 !- Wind Exposure
  ,                                       !- View Factor to Ground
  ,                                       !- Number of Vertices
  -2.8421709430404e-14, 1.77635683940025e-15, 0, !- X,Y,Z Vertex 1 {m}
  -2.8421709430404e-14, 4.572, 0,         !- X,Y,Z Vertex 2 {m}
  4.57199999999997, 4.572, 0,             !- X,Y,Z Vertex 3 {m}
  4.57199999999997, 1.77635683940025e-15, 0; !- X,Y,Z Vertex 4 {m}

OS:Surface,
  {88ff1b80-3358-4a7b-a864-aa8ac4f00294}, !- Handle
  Surface 2,                              !- Name
  Wall,                                   !- Surface Type
  ,                                       !- Construction Name
  {ee1825f5-b5d0-473d-8cc6-c4bde49a4daf}, !- Space Name
  Outdoors,                               !- Outside Boundary Condition
  ,                                       !- Outside Boundary Condition Object
  SunExposed,                             !- Sun Exposure
  WindExposed,                            !- Wind Exposure
  ,                                       !- View Factor to Ground
  ,                                       !- Number of Vertices
  -2.8421709430404e-14, 4.572, 3.048,     !- X,Y,Z Vertex 1 {m}
  -2.8421709430404e-14, 4.572, 0,         !- X,Y,Z Vertex 2 {m}
  -2.8421709430404e-14, 1.77635683940025e-15, 0, !- X,Y,Z Vertex 3 {m}
  -2.8421709430404e-14, 1.77635683940025e-15, 3.048; !- X,Y,Z Vertex 4 {m}

OS:Surface,
  {67c32b0d-656c-4901-9541-15fd379811e4}, !- Handle
  Surface 3,                              !- Name
  Wall,                                   !- Surface Type
  ,                                       !- Construction Name
  {ee1825f5-b5d0-473d-8cc6-c4bde49a4daf}, !- Space Name
  Surface,                                !- Outside Boundary Condition
  {c6ea0e12-e1a3-4238-a2a3-08b9541dede1}, !- Outside Boundary Condition Object
  NoSun,                                  !- Sun Exposure
  NoWind,                                 !- Wind Exposure
  ,                                       !- View Factor to Ground
  ,                                       !- Number of Vertices
  4.57199999999997, 4.572, 3.048,         !- X,Y,Z Vertex 1 {m}
  4.57199999999997, 4.572, 0,             !- X,Y,Z Vertex 2 {m}
  -2.8421709430404e-14, 4.572, 0,         !- X,Y,Z Vertex 3 {m}
  -2.8421709430404e-14, 4.572, 3.048;     !- X,Y,Z Vertex 4 {m}

OS:Surface,
  {ee629cf8-0f37-48ed-ac85-316f517da1d0}, !- Handle
  Surface 4,                              !- Name
  Wall,                                   !- Surface Type
  ,                                       !- Construction Name
  {ee1825f5-b5d0-473d-8cc6-c4bde49a4daf}, !- Space Name
  Surface,                                !- Outside Boundary Condition
  {d1abf29f-64c4-4103-8fae-040fb686a3f5}, !- Outside Boundary Condition Object
  NoSun,                                  !- Sun Exposure
  NoWind,                                 !- Wind Exposure
  ,                                       !- View Factor to Ground
  ,                                       !- Number of Vertices
  4.57199999999997, 1.77635683940025e-15, 3.048, !- X,Y,Z Vertex 1 {m}
  4.57199999999997, 1.77635683940025e-15, 0, !- X,Y,Z Vertex 2 {m}
  4.57199999999997, 4.572, 0,             !- X,Y,Z Vertex 3 {m}
  4.57199999999997, 4.572, 3.048;         !- X,Y,Z Vertex 4 {m}

OS:Surface,
  {37f5b35d-e4af-4673-8cb0-c2673e823441}, !- Handle
  Surface 5,                              !- Name
  Wall,                                   !- Surface Type
  ,                                       !- Construction Name
  {ee1825f5-b5d0-473d-8cc6-c4bde49a4daf}, !- Space Name
  Outdoors,                               !- Outside Boundary Condition
  ,                                       !- Outside Boundary Condition Object
  SunExposed,                             !- Sun Exposure
  WindExposed,                            !- Wind Exposure
  ,                                       !- View Factor to Ground
  ,                                       !- Number of Vertices
  -2.8421709430404e-14, 1.77635683940025e-15, 3.048, !- X,Y,Z Vertex 1 {m}
  -2.8421709430404e-14, 1.77635683940025e-15, 0, !- X,Y,Z Vertex 2 {m}
  4.57199999999997, 1.77635683940025e-15, 0, !- X,Y,Z Vertex 3 {m}
  4.57199999999997, 1.77635683940025e-15, 3.048; !- X,Y,Z Vertex 4 {m}

OS:Surface,
  {2ba0254b-399d-4f73-ba9a-bdbd99b9ed5c}, !- Handle
  Surface 6,                              !- Name
  RoofCeiling,                            !- Surface Type
  ,                                       !- Construction Name
  {ee1825f5-b5d0-473d-8cc6-c4bde49a4daf}, !- Space Name
  Adiabatic,                              !- Outside Boundary Condition
  ,                                       !- Outside Boundary Condition Object
  NoSun,                                  !- Sun Exposure
  NoWind,                                 !- Wind Exposure
  ,                                       !- View Factor to Ground
  ,                                       !- Number of Vertices
  4.57199999999997, 1.77635683940025e-15, 3.048, !- X,Y,Z Vertex 1 {m}
  4.57199999999997, 4.572, 3.048,         !- X,Y,Z Vertex 2 {m}
  -2.8421709430404e-14, 4.572, 3.048,     !- X,Y,Z Vertex 3 {m}
  -2.8421709430404e-14, 1.77635683940025e-15, 3.048; !- X,Y,Z Vertex 4 {m}

OS:ThermalZone,
  {71418c74-fa10-4e08-93ef-4517f2000e7e}, !- Handle
  Zone LargeHotel Banquet A end_a - Story Ground, !- Name
  1,                                      !- Multiplier
  ,                                       !- Ceiling Height {m}
  ,                                       !- Volume {m3}
  ,                                       !- Floor Area {m2}
  ,                                       !- Zone Inside Convection Algorithm
  ,                                       !- Zone Outside Convection Algorithm
  ,                                       !- Zone Conditioning Equipment List Name
  {d2c247eb-2ded-4745-8aa1-afbadfd4900b}, !- Zone Air Inlet Port List
  {1c0a7201-a3f1-4684-9c37-fae659d30466}, !- Zone Air Exhaust Port List
  {277007a5-c00e-47b4-9a10-eadc46317ad8}, !- Zone Air Node Name
  {aecd6895-715d-4426-b1ed-be5f4bd5f78f}, !- Zone Return Air Port List
  ,                                       !- Primary Daylighting Control Name
  ,                                       !- Fraction of Zone Controlled by Primary Daylighting Control
  ,                                       !- Secondary Daylighting Control Name
  ,                                       !- Fraction of Zone Controlled by Secondary Daylighting Control
  ,                                       !- Illuminance Map Name
  ,                                       !- Group Rendering Name
  ,                                       !- Thermostat Name
  No;                                     !- Use Ideal Air Loads

OS:Node,
  {f64d33b9-900a-42a7-852e-7d8ab3817a57}, !- Handle
  Node 1,                                 !- Name
  {277007a5-c00e-47b4-9a10-eadc46317ad8}, !- Inlet Port
  ;                                       !- Outlet Port

OS:Connection,
  {277007a5-c00e-47b4-9a10-eadc46317ad8}, !- Handle
  {7a11cd60-645f-4331-88c1-07e4ab17e9a8}, !- Name
  {71418c74-fa10-4e08-93ef-4517f2000e7e}, !- Source Object
  11,                                     !- Outlet Port
  {f64d33b9-900a-42a7-852e-7d8ab3817a57}, !- Target Object
  2;                                      !- Inlet Port

OS:PortList,
  {d2c247eb-2ded-4745-8aa1-afbadfd4900b}, !- Handle
  {77776a74-cabe-4fb7-a00d-226439378a49}, !- Name
  {71418c74-fa10-4e08-93ef-4517f2000e7e}; !- HVAC Component

OS:PortList,
  {1c0a7201-a3f1-4684-9c37-fae659d30466}, !- Handle
  {501e7d68-9526-4748-b995-e4323da83cd0}, !- Name
  {71418c74-fa10-4e08-93ef-4517f2000e7e}; !- HVAC Component

OS:PortList,
  {aecd6895-715d-4426-b1ed-be5f4bd5f78f}, !- Handle
  {f7c4ffff-9dae-4f8d-95e9-d142e3c9f1ac}, !- Name
  {71418c74-fa10-4e08-93ef-4517f2000e7e}; !- HVAC Component

OS:Sizing:Zone,
  {b5e8af17-3647-48f8-9cbf-c1a3049a5d12}, !- Handle
  {71418c74-fa10-4e08-93ef-4517f2000e7e}, !- Zone or ZoneList Name
  SupplyAirTemperature,                   !- Zone Cooling Design Supply Air Temperature Input Method
  14,                                     !- Zone Cooling Design Supply Air Temperature {C}
  11.11,                                  !- Zone Cooling Design Supply Air Temperature Difference {deltaC}
  SupplyAirTemperature,                   !- Zone Heating Design Supply Air Temperature Input Method
  40,                                     !- Zone Heating Design Supply Air Temperature {C}
  11.11,                                  !- Zone Heating Design Supply Air Temperature Difference {deltaC}
  0.0085,                                 !- Zone Cooling Design Supply Air Humidity Ratio {kg-H2O/kg-air}
  0.008,                                  !- Zone Heating Design Supply Air Humidity Ratio {kg-H2O/kg-air}
  ,                                       !- Zone Heating Sizing Factor
  ,                                       !- Zone Cooling Sizing Factor
  DesignDay,                              !- Cooling Design Air Flow Method
  ,                                       !- Cooling Design Air Flow Rate {m3/s}
  ,                                       !- Cooling Minimum Air Flow per Zone Floor Area {m3/s-m2}
  ,                                       !- Cooling Minimum Air Flow {m3/s}
  ,                                       !- Cooling Minimum Air Flow Fraction
  DesignDay,                              !- Heating Design Air Flow Method
  ,                                       !- Heating Design Air Flow Rate {m3/s}
  ,                                       !- Heating Maximum Air Flow per Zone Floor Area {m3/s-m2}
  ,                                       !- Heating Maximum Air Flow {m3/s}
  ,                                       !- Heating Maximum Air Flow Fraction
  ,                                       !- Design Zone Air Distribution Effectiveness in Cooling Mode
  ,                                       !- Design Zone Air Distribution Effectiveness in Heating Mode
  No,                                     !- Account for Dedicated Outdoor Air System
  NeutralSupplyAir,                       !- Dedicated Outdoor Air System Control Strategy
  autosize,                               !- Dedicated Outdoor Air Low Setpoint Temperature for Design {C}
  autosize;                               !- Dedicated Outdoor Air High Setpoint Temperature for Design {C}

OS:ZoneHVAC:EquipmentList,
  {5535b065-3b56-409c-9ef9-22e7341730cf}, !- Handle
  Zone HVAC Equipment List 1,             !- Name
  {71418c74-fa10-4e08-93ef-4517f2000e7e}; !- Thermal Zone

OS:Space,
  {d116ea11-8e67-4697-aa14-e258f1cf7141}, !- Handle
  LargeHotel Banquet B end_a - Story Ground, !- Name
  {ef61c15d-5ddb-4064-b9bc-b2f71fa14c4c}, !- Space Type Name
  ,                                       !- Default Construction Set Name
  ,                                       !- Default Schedule Set Name
  -0,                                     !- Direction of Relative North {deg}
  -29.3507163920623,                      !- X Origin {m}
  -1.18304242981613,                      !- Y Origin {m}
  0,                                      !- Z Origin {m}
  {2170bdf2-097d-4fcb-ab32-f693a92d1c06}, !- Building Story Name
  {3db72da9-6ddf-4d98-b053-e10abc3d507f}; !- Thermal Zone Name

OS:Surface,
  {67cc9fef-5945-4481-a457-88da3d617709}, !- Handle
  Surface 7,                              !- Name
  Floor,                                  !- Surface Type
  ,                                       !- Construction Name
  {d116ea11-8e67-4697-aa14-e258f1cf7141}, !- Space Name
  Ground,                                 !- Outside Boundary Condition
  ,                                       !- Outside Boundary Condition Object
  NoSun,                                  !- Sun Exposure
  NoWind,                                 !- Wind Exposure
  ,                                       !- View Factor to Ground
  ,                                       !- Number of Vertices
  -2.8421709430404e-14, 1.55431223447522e-15, 0, !- X,Y,Z Vertex 1 {m}
  -2.8421709430404e-14, 2.36608485963226, 0, !- X,Y,Z Vertex 2 {m}
  4.57199999999997, 2.36608485963226, 0,  !- X,Y,Z Vertex 3 {m}
  4.57199999999997, 1.55431223447522e-15, 0; !- X,Y,Z Vertex 4 {m}

OS:Surface,
  {436d00eb-61c2-4247-b12c-ee4b3d772328}, !- Handle
  Surface 8,                              !- Name
  Wall,                                   !- Surface Type
  ,                                       !- Construction Name
  {d116ea11-8e67-4697-aa14-e258f1cf7141}, !- Space Name
  Outdoors,                               !- Outside Boundary Condition
  ,                                       !- Outside Boundary Condition Object
  SunExposed,                             !- Sun Exposure
  WindExposed,                            !- Wind Exposure
  ,                                       !- View Factor to Ground
  ,                                       !- Number of Vertices
  -2.8421709430404e-14, 2.36608485963226, 3.048, !- X,Y,Z Vertex 1 {m}
  -2.8421709430404e-14, 2.36608485963226, 0, !- X,Y,Z Vertex 2 {m}
  -2.8421709430404e-14, 1.55431223447522e-15, 0, !- X,Y,Z Vertex 3 {m}
  -2.8421709430404e-14, 1.55431223447522e-15, 3.048; !- X,Y,Z Vertex 4 {m}

OS:Surface,
  {7b3721e0-c6f9-436d-ba07-22952b301161}, !- Handle
  Surface 9,                              !- Name
  Wall,                                   !- Surface Type
  ,                                       !- Construction Name
  {d116ea11-8e67-4697-aa14-e258f1cf7141}, !- Space Name
  Surface,                                !- Outside Boundary Condition
  {c6497609-d1a1-4e56-b263-f360e0fdd519}, !- Outside Boundary Condition Object
  NoSun,                                  !- Sun Exposure
  NoWind,                                 !- Wind Exposure
  ,                                       !- View Factor to Ground
  ,                                       !- Number of Vertices
  4.57199999999997, 2.36608485963226, 3.048, !- X,Y,Z Vertex 1 {m}
  4.57199999999997, 2.36608485963226, 0,  !- X,Y,Z Vertex 2 {m}
  -2.8421709430404e-14, 2.36608485963226, 0, !- X,Y,Z Vertex 3 {m}
  -2.8421709430404e-14, 2.36608485963226, 3.048; !- X,Y,Z Vertex 4 {m}

OS:Surface,
  {775f70a5-fbc5-4f9c-82af-bc948976c171}, !- Handle
  Surface 10,                             !- Name
  Wall,                                   !- Surface Type
  ,                                       !- Construction Name
  {d116ea11-8e67-4697-aa14-e258f1cf7141}, !- Space Name
  Surface,                                !- Outside Boundary Condition
  {16eb022c-625a-463a-9beb-b1a6e956be7f}, !- Outside Boundary Condition Object
  NoSun,                                  !- Sun Exposure
  NoWind,                                 !- Wind Exposure
  ,                                       !- View Factor to Ground
  ,                                       !- Number of Vertices
  4.57199999999997, 1.55431223447522e-15, 3.048, !- X,Y,Z Vertex 1 {m}
  4.57199999999997, 1.55431223447522e-15, 0, !- X,Y,Z Vertex 2 {m}
  4.57199999999997, 2.36608485963226, 0,  !- X,Y,Z Vertex 3 {m}
  4.57199999999997, 2.36608485963226, 3.048; !- X,Y,Z Vertex 4 {m}

OS:Surface,
  {c6ea0e12-e1a3-4238-a2a3-08b9541dede1}, !- Handle
  Surface 11,                             !- Name
  Wall,                                   !- Surface Type
  ,                                       !- Construction Name
  {d116ea11-8e67-4697-aa14-e258f1cf7141}, !- Space Name
  Surface,                                !- Outside Boundary Condition
  {67c32b0d-656c-4901-9541-15fd379811e4}, !- Outside Boundary Condition Object
  NoSun,                                  !- Sun Exposure
  NoWind,                                 !- Wind Exposure
  ,                                       !- View Factor to Ground
  ,                                       !- Number of Vertices
  -2.8421709430404e-14, 1.55431223447522e-15, 3.048, !- X,Y,Z Vertex 1 {m}
  -2.8421709430404e-14, 1.55431223447522e-15, 0, !- X,Y,Z Vertex 2 {m}
  4.57199999999997, 1.55431223447522e-15, 0, !- X,Y,Z Vertex 3 {m}
  4.57199999999997, 1.55431223447522e-15, 3.048; !- X,Y,Z Vertex 4 {m}

OS:Surface,
  {17826207-2481-4056-8e83-ef893217806e}, !- Handle
  Surface 12,                             !- Name
  RoofCeiling,                            !- Surface Type
  ,                                       !- Construction Name
  {d116ea11-8e67-4697-aa14-e258f1cf7141}, !- Space Name
  Adiabatic,                              !- Outside Boundary Condition
  ,                                       !- Outside Boundary Condition Object
  NoSun,                                  !- Sun Exposure
  NoWind,                                 !- Wind Exposure
  ,                                       !- View Factor to Ground
  ,                                       !- Number of Vertices
  4.57199999999997, 1.55431223447522e-15, 3.048, !- X,Y,Z Vertex 1 {m}
  4.57199999999997, 2.36608485963226, 3.048, !- X,Y,Z Vertex 2 {m}
  -2.8421709430404e-14, 2.36608485963226, 3.048, !- X,Y,Z Vertex 3 {m}
  -2.8421709430404e-14, 1.55431223447522e-15, 3.048; !- X,Y,Z Vertex 4 {m}

OS:ThermalZone,
  {3db72da9-6ddf-4d98-b053-e10abc3d507f}, !- Handle
  Zone LargeHotel Banquet B end_a - Story Ground, !- Name
  1,                                      !- Multiplier
  ,                                       !- Ceiling Height {m}
  ,                                       !- Volume {m3}
  ,                                       !- Floor Area {m2}
  ,                                       !- Zone Inside Convection Algorithm
  ,                                       !- Zone Outside Convection Algorithm
  ,                                       !- Zone Conditioning Equipment List Name
  {b291878e-74b3-43a9-9c1b-6f4dea2820bd}, !- Zone Air Inlet Port List
  {f191d033-1828-4a9e-8e52-58f943860aec}, !- Zone Air Exhaust Port List