
OS:Version,
  {d8b2638a-67f5-4580-8f18-eeea3f989357}, !- Handle
  2.8.0;                                  !- Version Identifier

OS:SpaceType,
  {31358025-c63c-4a5e-a499-e9c18c671a8c}, !- Handle
  Office WholeBuilding - Sm Office,       !- Name
  ,                                       !- Default Construction Set Name
  ,                                       !- Default Schedule Set Name
  {17f63950-31c9-46f2-baec-8dd3949a5d85}, !- Group Rendering Name
  ,                                       !- Design Specification Outdoor Air Object Name
  ,                                       !- Standards Template
  Office,                                 !- Standards Building Type
  WholeBuilding - Sm Office;              !- Standards Space Type

OS:Rendering:Color,
  {17f63950-31c9-46f2-baec-8dd3949a5d85}, !- Handle
  Office WholeBuilding - Sm Office,       !- Name
  120,                                    !- Rendering Red Value
  230,                                    !- Rendering Green Value
  199;                                    !- Rendering Blue Value

OS:Building,
  {b624eef0-3841-4f8a-b558-c29776a307fd}, !- Handle
  90.1-2004|SmallOffice,                  !- Name
  ,                                       !- Building Sector Type
  ,                                       !- North Axis {deg}
  ,                                       !- Nominal Floor to Floor Height {m}
  {31358025-c63c-4a5e-a499-e9c18c671a8c}, !- Space Type Name
  ,                                       !- Default Construction Set Name
  ;                                       !- Default Schedule Set Name

OS:Site,
  {06c865bb-20b5-4375-88c4-2e073eafcd45}, !- Handle
  Site 1,                                 !- Name
  ,                                       !- Latitude {deg}
  ,                                       !- Longitude {deg}
  ,                                       !- Time Zone {hr}
  ,                                       !- Elevation {m}
  ;                                       !- Terrain

OS:BuildingStory,
  {daeb32cd-7f3f-4dba-b87a-781da018807c}, !- Handle
  Story Ground,                           !- Name
  0,                                      !- Nominal Z Coordinate {m}
  3.048,                                  !- Nominal Floor to Floor Height {m}
  ,                                       !- Default Construction Set Name
  ,                                       !- Default Schedule Set Name
  ;                                       !- Group Rendering Name

OS:Space,
  {30ebe0c1-a93c-4f42-b328-a4483b069693}, !- Handle
  West Perimeter Space - Story Ground,    !- Name
  ,                                       !- Space Type Name
  ,                                       !- Default Construction Set Name
  ,                                       !- Default Schedule Set Name
  -0,                                     !- Direction of Relative North {deg}
  -17.7964858635324,                      !- X Origin {m}
  -11.8643239090216,                      !- Y Origin {m}
  0,                                      !- Z Origin {m}
  {daeb32cd-7f3f-4dba-b87a-781da018807c}, !- Building Story Name
  {176bd1d3-edd4-438b-b2ef-64329a801049}; !- Thermal Zone Name

OS:Surface,
  {05165a81-58d4-4d61-866e-4271254a39e0}, !- Handle
  Surface 1,                              !- Name
  Floor,                                  !- Surface Type
  ,                                       !- Construction Name
  {30ebe0c1-a93c-4f42-b328-a4483b069693}, !- Space Name
  Ground,                                 !- Outside Boundary Condition
  ,                                       !- Outside Boundary Condition Object
  NoSun,                                  !- Sun Exposure
  NoWind,                                 !- Wind Exposure
  ,                                       !- View Factor to Ground
  ,                                       !- Number of Vertices
  1.77635683940025e-14, 8.88178419700125e-15, 0, !- X,Y,Z Vertex 1 {m}
  1.77635683940025e-14, 23.7286478180432, 0, !- X,Y,Z Vertex 2 {m}
  4.57200000000002, 19.1566478180432, 0,  !- X,Y,Z Vertex 3 {m}
  4.57200000000002, 4.572, 0;             !- X,Y,Z Vertex 4 {m}

OS:Surface,
  {6a9e24f1-8fde-481a-8062-d1a278a30ae3}, !- Handle
  Surface 2,                              !- Name
  Wall,                                   !- Surface Type
  ,                                       !- Construction Name
  {30ebe0c1-a93c-4f42-b328-a4483b069693}, !- Space Name
  Outdoors,                               !- Outside Boundary Condition
  ,                                       !- Outside Boundary Condition Object
  SunExposed,                             !- Sun Exposure
  WindExposed,                            !- Wind Exposure
  ,                                       !- View Factor to Ground
  ,                                       !- Number of Vertices
  1.77635683940025e-14, 23.7286478180432, 3.048, !- X,Y,Z Vertex 1 {m}
  1.77635683940025e-14, 23.7286478180432, 0, !- X,Y,Z Vertex 2 {m}
  1.77635683940025e-14, 8.88178419700125e-15, 0, !- X,Y,Z Vertex 3 {m}
  1.77635683940025e-14, 8.88178419700125e-15, 3.048; !- X,Y,Z Vertex 4 {m}

OS:Surface,
  {d2a49c78-5217-49aa-9525-05c9516a85a9}, !- Handle
  Surface 3,                              !- Name
  Wall,                                   !- Surface Type
  ,                                       !- Construction Name
  {30ebe0c1-a93c-4f42-b328-a4483b069693}, !- Space Name
  Surface,                                !- Outside Boundary Condition
  {fe6e542a-47bf-488a-89a9-202b0ce12bb5}, !- Outside Boundary Condition Object
  NoSun,                                  !- Sun Exposure
  NoWind,                                 !- Wind Exposure
  ,                                       !- View Factor to Ground
  ,                                       !- Number of Vertices
  4.57200000000002, 19.1566478180432, 3.048, !- X,Y,Z Vertex 1 {m}
  4.57200000000002, 19.1566478180432, 0,  !- X,Y,Z Vertex 2 {m}
  1.77635683940025e-14, 23.7286478180432, 0, !- X,Y,Z Vertex 3 {m}
  1.77635683940025e-14, 23.7286478180432, 3.048; !- X,Y,Z Vertex 4 {m}

OS:Surface,
  {c79231fb-3b20-402c-afd0-ceb6110b5414}, !- Handle
  Surface 4,                              !- Name
  Wall,                                   !- Surface Type
  ,                                       !- Construction Name
  {30ebe0c1-a93c-4f42-b328-a4483b069693}, !- Space Name
  Surface,                                !- Outside Boundary Condition
  {c49e5750-86d1-43c6-97d7-845ff213ae01}, !- Outside Boundary Condition Object
  NoSun,                                  !- Sun Exposure
  NoWind,                                 !- Wind Exposure
  ,                                       !- View Factor to Ground
  ,                                       !- Number of Vertices
  4.57200000000002, 4.572, 3.048,         !- X,Y,Z Vertex 1 {m}
  4.57200000000002, 4.572, 0,             !- X,Y,Z Vertex 2 {m}
  4.57200000000002, 19.1566478180432, 0,  !- X,Y,Z Vertex 3 {m}
  4.57200000000002, 19.1566478180432, 3.048; !- X,Y,Z Vertex 4 {m}

OS:Surface,
  {a2068944-a389-46ca-bb24-c8e0b8f820d6}, !- Handle
  Surface 5,                              !- Name
  Wall,                                   !- Surface Type
  ,                                       !- Construction Name
  {30ebe0c1-a93c-4f42-b328-a4483b069693}, !- Space Name
  Surface,                                !- Outside Boundary Condition
  {c13bc971-b5e1-4c5f-babb-4a0f5548a775}, !- Outside Boundary Condition Object
  NoSun,                                  !- Sun Exposure
  NoWind,                                 !- Wind Exposure
  ,                                       !- View Factor to Ground
  ,                                       !- Number of Vertices
  1.77635683940025e-14, 8.88178419700125e-15, 3.048, !- X,Y,Z Vertex 1 {m}
  1.77635683940025e-14, 8.88178419700125e-15, 0, !- X,Y,Z Vertex 2 {m}
  4.57200000000002, 4.572, 0,             !- X,Y,Z Vertex 3 {m}
  4.57200000000002, 4.572, 3.048;         !- X,Y,Z Vertex 4 {m}

OS:Surface,
  {1c3255d0-4427-4023-b3de-d04e0f0d876b}, !- Handle
  Surface 6,                              !- Name
  RoofCeiling,                            !- Surface Type
  ,                                       !- Construction Name
  {30ebe0c1-a93c-4f42-b328-a4483b069693}, !- Space Name
  Adiabatic,                              !- Outside Boundary Condition
  ,                                       !- Outside Boundary Condition Object
  NoSun,                                  !- Sun Exposure
  NoWind,                                 !- Wind Exposure
  ,                                       !- View Factor to Ground
  ,                                       !- Number of Vertices
  4.57200000000002, 4.572, 3.048,         !- X,Y,Z Vertex 1 {m}
  4.57200000000002, 19.1566478180432, 3.048, !- X,Y,Z Vertex 2 {m}
  1.77635683940025e-14, 23.7286478180432, 3.048, !- X,Y,Z Vertex 3 {m}
  1.77635683940025e-14, 8.88178419700125e-15, 3.048; !- X,Y,Z Vertex 4 {m}

OS:ThermalZone,
  {176bd1d3-edd4-438b-b2ef-64329a801049}, !- Handle
  Zone West Perimeter Space - Story Ground, !- Name
  1,                                      !- Multiplier
  ,                                       !- Ceiling Height {m}
  ,                                       !- Volume {m3}
  ,                                       !- Floor Area {m2}
  ,                                       !- Zone Inside Convection Algorithm
  ,                                       !- Zone Outside Convection Algorithm
  ,                                       !- Zone Conditioning Equipment List Name
  {43b3585d-edb7-4b4e-b034-ef3915e1b936}, !- Zone Air Inlet Port List
  {61623409-425c-4784-b797-b957b52116ae}, !- Zone Air Exhaust Port List
  {f675160d-c50b-4186-b80d-16a55379d5fd}, !- Zone Air Node Name
  {8ebd25de-3c51-4e0b-ab44-74b1e7d4c879}, !- Zone Return Air Port List
  ,                                       !- Primary Daylighting Control Name
  ,                                       !- Fraction of Zone Controlled by Primary Daylighting Control
  ,                                       !- Secondary Daylighting Control Name
  ,                                       !- Fraction of Zone Controlled by Secondary Daylighting Control
  ,                                       !- Illuminance Map Name
  ,                                       !- Group Rendering Name
  ,                                       !- Thermostat Name
  No;                                     !- Use Ideal Air Loads

OS:Node,
  {8a12da10-5bed-4d16-9fd1-2e0b312cbdc2}, !- Handle
  Node 1,                                 !- Name
  {f675160d-c50b-4186-b80d-16a55379d5fd}, !- Inlet Port
  ;                                       !- Outlet Port

OS:Connection,
  {f675160d-c50b-4186-b80d-16a55379d5fd}, !- Handle
  {0c67534d-dbdd-4e40-9af0-1421aecbb002}, !- Name
  {176bd1d3-edd4-438b-b2ef-64329a801049}, !- Source Object
  11,                                     !- Outlet Port
  {8a12da10-5bed-4d16-9fd1-2e0b312cbdc2}, !- Target Object
  2;                                      !- Inlet Port

OS:PortList,
  {43b3585d-edb7-4b4e-b034-ef3915e1b936}, !- Handle
  {4d47a97f-cae4-4576-a8f1-33231f0e5ada}, !- Name
  {176bd1d3-edd4-438b-b2ef-64329a801049}; !- HVAC Component

OS:PortList,
  {61623409-425c-4784-b797-b957b52116ae}, !- Handle
  {0b1d0f01-b1c2-4d12-8c68-e1406ebbbefa}, !- Name
  {176bd1d3-edd4-438b-b2ef-64329a801049}; !- HVAC Component

OS:PortList,
  {8ebd25de-3c51-4e0b-ab44-74b1e7d4c879}, !- Handle
  {23d3372b-85ce-4316-b857-c1799f3962d1}, !- Name
  {176bd1d3-edd4-438b-b2ef-64329a801049}; !- HVAC Component

OS:Sizing:Zone,
  {99f33560-3b26-4ba1-91ba-c32894e38026}, !- Handle
  {176bd1d3-edd4-438b-b2ef-64329a801049}, !- Zone or ZoneList Name
  SupplyAirTemperature,                   !- Zone Cooling Design Supply Air Temperature Input Method
  14,                                     !- Zone Cooling Design Supply Air Temperature {C}
  11.11,                                  !- Zone Cooling Design Supply Air Temperature Difference {deltaC}
  SupplyAirTemperature,                   !- Zone Heating Design Supply Air Temperature Input Method
  40,                                     !- Zone Heating Design Supply Air Temperature {C}
  11.11,                                  !- Zone Heating Design Supply Air Temperature Difference {deltaC}
  0.0085,                                 !- Zone Cooling Design Supply Air Humidity Ratio {kg-H2O/kg-air}
  0.008,                                  !- Zone Heating Design Supply Air Humidity Ratio {kg-H2O/kg-air}
  ,                                       !- Zone Heating Sizing Factor
  ,                                       !- Zone Cooling Sizing Factor
  DesignDay,                              !- Cooling Design Air Flow Method
  ,                                       !- Cooling Design Air Flow Rate {m3/s}
  ,                                       !- Cooling Minimum Air Flow per Zone Floor Area {m3/s-m2}
  ,                                       !- Cooling Minimum Air Flow {m3/s}
  ,                                       !- Cooling Minimum Air Flow Fraction
  DesignDay,                              !- Heating Design Air Flow Method
  ,                                       !- Heating Design Air Flow Rate {m3/s}
  ,                                       !- Heating Maximum Air Flow per Zone Floor Area {m3/s-m2}
  ,                                       !- Heating Maximum Air Flow {m3/s}
  ,                                       !- Heating Maximum Air Flow Fraction
  ,                                       !- Design Zone Air Distribution Effectiveness in Cooling Mode
  ,                                       !- Design Zone Air Distribution Effectiveness in Heating Mode
  No,                                     !- Account for Dedicated Outdoor Air System
  NeutralSupplyAir,                       !- Dedicated Outdoor Air System Control Strategy
  autosize,                               !- Dedicated Outdoor Air Low Setpoint Temperature for Design {C}
  autosize;                               !- Dedicated Outdoor Air High Setpoint Temperature for Design {C}

OS:ZoneHVAC:EquipmentList,
  {07629c0c-d0f5-4fc8-bf94-88178dcb55c5}, !- Handle
  Zone HVAC Equipment List 1,             !- Name
  {176bd1d3-edd4-438b-b2ef-64329a801049}; !- Thermal Zone

OS:Space,
  {8cd1764f-6dd1-477c-baf0-56deb2ae5700}, !- Handle
  North Perimeter Space - Story Ground,   !- Name
  ,                                       !- Space Type Name
  ,                                       !- Default Construction Set Name
  ,                                       !- Default Schedule Set Name
  -0,                                     !- Direction of Relative North {deg}
  -17.7964858635324,                      !- X Origin {m}
  11.8643239090216,                       !- Y Origin {m}
  0,                                      !- Z Origin {m}
  {daeb32cd-7f3f-4dba-b87a-781da018807c}, !- Building Story Name
  {70b6b62f-c54a-416c-b494-646eb95214b0}; !- Thermal Zone Name

OS:Surface,
  {394056df-4cf7-4b2d-b071-405a3a858f61}, !- Handle
  Surface 7,                              !- Name
  Floor,                                  !- Surface Type
  ,                                       !- Construction Name
  {8cd1764f-6dd1-477c-baf0-56deb2ae5700}, !- Space Name
  Ground,                                 !- Outside Boundary Condition
  ,                                       !- Outside Boundary Condition Object
  NoSun,                                  !- Sun Exposure
  NoWind,                                 !- Wind Exposure
  ,                                       !- View Factor to Ground
  ,                                       !- Number of Vertices
  1.77635683940025e-14, -8.88178419700125e-15, 0, !- X,Y,Z Vertex 1 {m}
  35.5929717270648, -8.88178419700125e-15, 0, !- X,Y,Z Vertex 2 {m}
  31.0209717270648, -4.572, 0,            !- X,Y,Z Vertex 3 {m}
  4.57200000000002, -4.572, 0;            !- X,Y,Z Vertex 4 {m}

OS:Surface,
  {e745162b-b133-4dc0-8b87-e1b555b09e83}, !- Handle
  Surface 8,                              !- Name
  Wall,                                   !- Surface Type
  ,                                       !- Construction Name
  {8cd1764f-6dd1-477c-baf0-56deb2ae5700}, !- Space Name
  Outdoors,                               !- Outside Boundary Condition
  ,                                       !- Outside Boundary Condition Object
  SunExposed,                             !- Sun Exposure
  WindExposed,                            !- Wind Exposure
  ,                                       !- View Factor to Ground
  ,                                       !- Number of Vertices
  35.5929717270648, -8.88178419700125e-15, 3.048, !- X,Y,Z Vertex 1 {m}
  35.5929717270648, -8.88178419700125e-15, 0, !- X,Y,Z Vertex 2 {m}
  1.77635683940025e-14, -8.88178419700125e-15, 0, !- X,Y,Z Vertex 3 {m}
  1.77635683940025e-14, -8.88178419700125e-15, 3.048; !- X,Y,Z Vertex 4 {m}

OS:Surface,
  {1d6ccd46-2c89-46c8-a308-55b6267b0ea8}, !- Handle
  Surface 9,                              !- Name
  Wall,                                   !- Surface Type
  ,                                       !- Construction Name
  {8cd1764f-6dd1-477c-baf0-56deb2ae5700}, !- Space Name
  Surface,                                !- Outside Boundary Condition
  {04642bbc-2c9c-4be5-9c04-48b23a29adec}, !- Outside Boundary Condition Object
  NoSun,                                  !- Sun Exposure
  NoWind,                                 !- Wind Exposure
  ,                                       !- View Factor to Ground
  ,                                       !- Number of Vertices
  31.0209717270648, -4.572, 3.048,        !- X,Y,Z Vertex 1 {m}
  31.0209717270648, -4.572, 0,            !- X,Y,Z Vertex 2 {m}
  35.5929717270648, -8.88178419700125e-15, 0, !- X,Y,Z Vertex 3 {m}
  35.5929717270648, -8.88178419700125e-15, 3.048; !- X,Y,Z Vertex 4 {m}

OS:Surface,
  {70b2579a-966b-48ff-ac3a-d1432a6f9801}, !- Handle
  Surface 10,                             !- Name
  Wall,                                   !- Surface Type
  ,                                       !- Construction Name
  {8cd1764f-6dd1-477c-baf0-56deb2ae5700}, !- Space Name
  Surface,                                !- Outside Boundary Condition
  {183f3a28-3bd1-49e7-b658-d22fba14547e}, !- Outside Boundary Condition Object
  NoSun,                                  !- Sun Exposure
  NoWind,                                 !- Wind Exposure
  ,                                       !- View Factor to Ground
  ,                                       !- Number of Vertices
  4.57200000000002, -4.572, 3.048,        !- X,Y,Z Vertex 1 {m}
  4.57200000000002, -4.572, 0,            !- X,Y,Z Vertex 2 {m}
  31.0209717270648, -4.572, 0,            !- X,Y,Z Vertex 3 {m}
  31.0209717270648, -4.572, 3.048;        !- X,Y,Z Vertex 4 {m}

OS:Surface,
  {fe6e542a-47bf-488a-89a9-202b0ce12bb5}, !- Handle
  Surface 11,                             !- Name
  Wall,                                   !- Surface Type
  ,                                       !- Construction Name
  {8cd1764f-6dd1-477c-baf0-56deb2ae5700}, !- Space Name
  Surface,                                !- Outside Boundary Condition
  {d2a49c78-5217-49aa-9525-05c9516a85a9}, !- Outside Boundary Condition Object
  NoSun,                                  !- Sun Exposure
  NoWind,                                 !- Wind Exposure
  ,                                       !- View Factor to Ground
  ,                                       !- Number of Vertices
  1.77635683940025e-14, -8.88178419700125e-15, 3.048, !- X,Y,Z Vertex 1 {m}
  1.77635683940025e-14, -8.88178419700125e-15, 0, !- X,Y,Z Vertex 2 {m}
  4.57200000000002, -4.572, 0,            !- X,Y,Z Vertex 3 {m}
  4.57200000000002, -4.572, 3.048;        !- X,Y,Z Vertex 4 {m}

OS:Surface,
  {dc317e97-3cb0-4832-afcb-3e59e4cadc48}, !- Handle
  Surface 12,                             !- Name
  RoofCeiling,                            !- Surface Type
  ,                                       !- Construction Name
  {8cd1764f-6dd1-477c-baf0-56deb2ae5700}, !- Space Name
  Adiabatic,                              !- Outside Boundary Condition
  ,                                       !- Outside Boundary Condition Object
  NoSun,                                  !- Sun Exposure
  NoWind,                                 !- Wind Exposure
  ,                                       !- View Factor to Ground
  ,                                       !- Number of Vertices
  4.57200000000002, -4.572, 3.048,        !- X,Y,Z Vertex 1 {m}
  31.0209717270648, -4.572, 3.048,        !- X,Y,Z Vertex 2 {m}
  35.5929717270648, -8.88178419700125e-15, 3.048, !- X,Y,Z Vertex 3 {m}
  1.77635683940025e-14, -8.88178419700125e-15, 3.048; !- X,Y,Z Vertex 4 {m}

OS:ThermalZone,
  {70b6b62f-c54a-416c-b494-646eb95214b0}, !- Handle
  Zone North Perimeter Space - Story Ground, !- Name
  1,                                      !- Multiplier
  ,                                       !- Ceiling Height {m}
  ,                                       !- Volume {m3}
  ,                                       !- Floor Area {m2}
  ,                                       !- Zone Inside Convection Algorithm
  ,                                       !- Zone Outside Convection Algorithm
  ,                                       !- Zone Conditioning Equipment List Name
  {d81f684a-f7ba-430f-95c0-25ade716e9d4}, !- Zone Air Inlet Port List
  {d5d86fe2-3d0b-4acf-b682-b8b76399c13c}, !- Zone Air Exhaust Port List
  {b1a657ad-2df8-4ae8-a8c7-df2d9f37b672}, !- Zone Air Node Name
  {fccd0bcb-27ce-4b30-97e4-4bb598ecba92}, !- Zone Return Air Port List
  ,                                       !- Primary Daylighting Control Name
  ,                                       !- Fraction of Zone Controlled by Primary Daylighting Control
  ,                                       !- Secondary Daylighting Control Name
  ,                                       !- Fraction of Zone Controlled by Secondary Daylighting Control
  ,                                       !- Illuminance Map Name
  ,                                       !- Group Rendering Name
  ,                                       !- Thermostat Name
  No;                                     !- Use Ideal Air Loads

OS:Node,
  {8a881660-a488-43e4-944a-9ab356f71c8a}, !- Handle
  Node 2,                                 !- Name
  {b1a657ad-2df8-4ae8-a8c7-df2d9f37b672}, !- Inlet Port
  ;                                       !- Outlet Port

OS:Connection,
  {b1a657ad-2df8-4ae8-a8c7-df2d9f37b672}, !- Handle
  {132d1b21-aa22-4ce9-859c-e2dece93170c}, !- Name
  {70b6b62f-c54a-416c-b494-646eb95214b0}, !- Source Object
  11,                                     !- Outlet Port
  {8a881660-a488-43e4-944a-9ab356f71c8a}, !- Target Object
  2;                                      !- Inlet Port

OS:PortList,
  {d81f684a-f7ba-430f-95c0-25ade716e9d4}, !- Handle
  {630b045e-14d7-4e8a-9e2e-2aaf6fbc1519}, !- Name
  {70b6b62f-c54a-416c-b494-646eb95214b0}; !- HVAC Component

OS:PortList,
  {d5d86fe2-3d0b-4acf-b682-b8b76399c13c}, !- Handle
  {bb09c870-d05b-4369-8bee-02970eadf41c}, !- Name
  {70b6b62f-c54a-416c-b494-646eb95214b0}; !- HVAC Component

OS:PortList,
  {fccd0bcb-27ce-4b30-97e4-4bb598ecba92}, !- Handle
  {4a614286-2191-47a3-bcfc-4983857350dd}, !- Name
  {70b6b62f-c54a-416c-b494-646eb95214b0}; !- HVAC Component

OS:Sizing:Zone,
  {c27dcc13-01ef-4051-b938-4236971edd8c}, !- Handle
  {70b6b62f-c54a-416c-b494-646eb95214b0}, !- Zone or ZoneList Name
  SupplyAirTemperature,                   !- Zone Cooling Design Supply Air Temperature Input Method
  14,                                     !- Zone Cooling Design Supply Air Temperature {C}
  11.11,                                  !- Zone Cooling Design Supply Air Temperature Difference {deltaC}
  SupplyAirTemperature,                   !- Zone Heating Design Supply Air Temperature Input Method
  40,                                     !- Zone Heating Design Supply Air Temperature {C}
  11.11,                                  !- Zone Heating Design Supply Air Temperature Difference {deltaC}
  0.0085,                                 !- Zone Cooling Design Supply Air Humidity Ratio {kg-H2O/kg-air}
  0.008,                                  !- Zone Heating Design Supply Air Humidity Ratio {kg-H2O/kg-air}
  ,                                       !- Zone Heating Sizing Factor
  ,                                       !- Zone Cooling Sizing Factor
  DesignDay,                              !- Cooling Design Air Flow Method
  ,                                       !- Cooling Design Air Flow Rate {m3/s}
  ,                                       !- Cooling Minimum Air Flow per Zone Floor Area {m3/s-m2}
  ,                                       !- Cooling Minimum Air Flow {m3/s}
  ,                                       !- Cooling Minimum Air Flow Fraction
  DesignDay,                              !- Heating Design Air Flow Method
  ,                                       !- Heating Design Air Flow Rate {m3/s}
  ,                                       !- Heating Maximum Air Flow per Zone Floor Area {m3/s-m2}
  ,                                       !- Heating Maximum Air Flow {m3/s}
  ,                                       !- Heating Maximum Air Flow Fraction
  ,                                       !- Design Zone Air Distribution Effectiveness in Cooling Mode
  ,                                       !- Design Zone Air Distribution Effectiveness in Heating Mode
  No,                                     !- Account for Dedicated Outdoor Air System
  NeutralSupplyAir,                       !- Dedicated Outdoor Air System Control Strategy
  autosize,                               !- Dedicated Outdoor Air Low Setpoint Temperature for Design {C}
  autosize;                               !- Dedicated Outdoor Air High Setpoint Temperature for Design {C}

OS:ZoneHVAC:EquipmentList,
  {8b19eb56-e99f-41ef-9e65-d563e528a8ef}, !- Handle
  Zone HVAC Equipment List 2,             !- Name
  {70b6b62f-c54a-416c-b494-646eb95214b0}; !- Thermal Zone

OS:Space,
  {90c4d048-3d70-4585-b2fc-74fe9d75b823}, !- Handle
  East Perimeter Space - Story Ground,    !- Name
  ,                                       !- Space Type Name
  ,                                       !- Default Construction Set Name
  ,                                       !- Default Schedule Set Name
  -0,                                     !- Direction of Relative North {deg}
  17.7964858635324,                       !- X Origin {m}
  11.8643239090216,                       !- Y Origin {m}
  0,                                      !- Z Origin {m}
  {daeb32cd-7f3f-4dba-b87a-781da018807c}, !- Building Story Name
  {d33915d0-fcab-4a9c-94cc-d92192e208ee}; !- Thermal Zone Name

OS:Surface,
  {d997450a-2202-4769-990d-e2051ce7838e}, !- Handle
  Surface 13,                             !- Name
  Floor,                                  !- Surface Type
  ,                                       !- Construction Name
  {90c4d048-3d70-4585-b2fc-74fe9d75b823}, !- Space Name
  Ground,                                 !- Outside Boundary Condition
  ,                                       !- Outside Boundary Condition Object
  NoSun,                                  !- Sun Exposure
  NoWind,                                 !- Wind Exposure
  ,                                       !- View Factor to Ground
  ,                                       !- Number of Vertices
  -1.77635683940025e-14, -8.88178419700125e-15, 0, !- X,Y,Z Vertex 1 {m}
  -1.77635683940025e-14, -23.7286478180432, 0, !- X,Y,Z Vertex 2 {m}
  -4.57200000000002, -19.1566478180432, 0, !- X,Y,Z Vertex 3 {m}
  -4.57200000000002, -4.572, 0;           !- X,Y,Z Vertex 4 {m}

OS:Surface,
  {efc75d1c-df3f-4001-9351-6fb616739aae}, !- Handle
  Surface 14,                             !- Name
  Wall,                                   !- Surface Type
  ,                                       !- Construction Name
  {90c4d048-3d70-4585-b2fc-74fe9d75b823}, !- Space Name
  Outdoors,                               !- Outside Boundary Condition
  ,                                       !- Outside Boundary Condition Object
  SunExposed,                             !- Sun Exposure
  WindExposed,                            !- Wind Exposure
  ,                                       !- View Factor to Ground
  ,                                       !- Number of Vertices
  -1.77635683940025e-14, -23.7286478180432, 3.048, !- X,Y,Z Vertex 1 {m}
  -1.77635683940025e-14, -23.7286478180432, 0, !- X,Y,Z Vertex 2 {m}
  -1.77635683940025e-14, -8.88178419700125e-15, 0, !- X,Y,Z Vertex 3 {m}
  -1.77635683940025e-14, -8.88178419700125e-15, 3.048; !- X,Y,Z Vertex 4 {m}

OS:Surface,
  {be3a6591-9b33-44c9-aced-49baa9a8cfa5}, !- Handle
  Surface 15,                             !- Name
  Wall,                                   !- Surface Type
  ,                                       !- Construction Name
  {90c4d048-3d70-4585-b2fc-74fe9d75b823}, !- Space Name
  Surface,                                !- Outside Boundary Condition
  {da8f2cb3-881b-4f49-b6d7-35a2f7df9a8a}, !- Outside Boundary Condition Object
  NoSun,                                  !- Sun Exposure
  NoWind,                                 !- Wind Exposure
  ,                                       !- View Factor to Ground
  ,                                       !- Number of Vertices
  -4.57200000000002, -19.1566478180432, 3.048, !- X,Y,Z Vertex 1 {m}
  -4.57200000000002, -19.1566478180432, 0, !- X,Y,Z Vertex 2 {m}
  -1.77635683940025e-14, -23.7286478180432, 0, !- X,Y,Z Vertex 3 {m}
  -1.77635683940025e-14, -23.7286478180432, 3.048; !- X,Y,Z Vertex 4 {m}

OS:Surface,
  {306faecd-6f9c-4e52-83e6-d3a72a603cb3}, !- Handle
  Surface 16,                             !- Name
  Wall,                                   !- Surface Type
  ,                                       !- Construction Name
  {90c4d048-3d70-4585-b2fc-74fe9d75b823}, !- Space Name