
Version,
  9.1;                                    !- Version Identifier

Timestep,
  6;                                      !- Number of Timesteps per Hour

LifeCycleCost:Parameters,
  Life Cycle Cost Parameters,             !- Name
  EndOfYear,                              !- Discounting Convention
  ConstantDollar,                         !- Inflation Approach
  0.03,                                   !- Real Discount Rate
  ,                                       !- Nominal Discount Rate
  ,                                       !- Inflation
  ,                                       !- Base Date Month
  2011,                                   !- Base Date Year
  ,                                       !- Service Date Month
  2011,                                   !- Service Date Year
  25,                                     !- Length of Study Period in Years
  ,                                       !- Tax rate
  None;                                   !- Depreciation Method

LifeCycleCost:UsePriceEscalation,
  U.S. Avg  Commercial-Electricity,       !- LCC Price Escalation Name
  Electricity,                            !- Resource
  2011,                                   !- Escalation Start Year
  January,                                !- Escalation Start Month
  0.9838,                                 !- Year Escalation 1
  0.9730,                                 !- Year Escalation 2
  0.9632,                                 !- Year Escalation 3
  0.9611,                                 !- Year Escalation 4
  0.9571,                                 !- Year Escalation 5
  0.9553,                                 !- Year Escalation 6
  0.9539,                                 !- Year Escalation 7
  0.9521,                                 !- Year Escalation 8
  0.9546,                                 !- Year Escalation 9
  0.9550,                                 !- Year Escalation 10
  0.9553,                                 !- Year Escalation 11
  0.9564,                                 !- Year Escalation 12
  0.9575,                                 !- Year Escalation 13
  0.9596,                                 !- Year Escalation 14
  0.9618,                                 !- Year Escalation 15
  0.9614,                                 !- Year Escalation 16
  0.9618,                                 !- Year Escalation 17
  0.9618,                                 !- Year Escalation 18
  0.9593,                                 !- Year Escalation 19
  0.9589,                                 !- Year Escalation 20
  0.9607,                                 !- Year Escalation 21
  0.9625,                                 !- Year Escalation 22
  0.9650,                                 !- Year Escalation 23
  0.9708,                                 !- Year Escalation 24
  0.9751,                                 !- Year Escalation 25
  0.9762,                                 !- Year Escalation 26
  0.9766,                                 !- Year Escalation 27
  0.9766,                                 !- Year Escalation 28
  0.9769,                                 !- Year Escalation 29
  0.9773;                                 !- Year Escalation 30

LifeCycleCost:UsePriceEscalation,
  U.S. Avg  Commercial-Distillate Oil,    !- LCC Price Escalation Name
  FuelOil#1,                              !- Resource
  2011,                                   !- Escalation Start Year
  January,                                !- Escalation Start Month
  0.9714,                                 !- Year Escalation 1
  0.9730,                                 !- Year Escalation 2
  0.9942,                                 !- Year Escalation 3
  1.0164,                                 !- Year Escalation 4
  1.0541,                                 !- Year Escalation 5
  1.0928,                                 !- Year Escalation 6
  1.1267,                                 !- Year Escalation 7
  1.1580,                                 !- Year Escalation 8
  1.1792,                                 !- Year Escalation 9
  1.1967,                                 !- Year Escalation 10
  1.2200,                                 !- Year Escalation 11
  1.2333,                                 !- Year Escalation 12
  1.2566,                                 !- Year Escalation 13
  1.2709,                                 !- Year Escalation 14
  1.2826,                                 !- Year Escalation 15
  1.2985,                                 !- Year Escalation 16
  1.3102,                                 !- Year Escalation 17
  1.3250,                                 !- Year Escalation 18
  1.3261,                                 !- Year Escalation 19
  1.3282,                                 !- Year Escalation 20
  1.3324,                                 !- Year Escalation 21
  1.3356,                                 !- Year Escalation 22
  1.3431,                                 !- Year Escalation 23
  1.3510,                                 !- Year Escalation 24
  1.3568,                                 !- Year Escalation 25
  1.3606,                                 !- Year Escalation 26
  1.3637,                                 !- Year Escalation 27
  1.3674,                                 !- Year Escalation 28
  1.3706,                                 !- Year Escalation 29
  1.3743;                                 !- Year Escalation 30

LifeCycleCost:UsePriceEscalation,
  U.S. Avg  Commercial-Residual Oil,      !- LCC Price Escalation Name
  FuelOil#2,                              !- Resource
  2011,                                   !- Escalation Start Year
  January,                                !- Escalation Start Month
  0.8469,                                 !- Year Escalation 1
  0.8257,                                 !- Year Escalation 2
  0.8681,                                 !- Year Escalation 3
  0.8988,                                 !- Year Escalation 4
  0.9289,                                 !- Year Escalation 5
  0.9604,                                 !- Year Escalation 6
  0.9897,                                 !- Year Escalation 7
  1.0075,                                 !- Year Escalation 8
  1.0314,                                 !- Year Escalation 9
  1.0554,                                 !- Year Escalation 10
  1.0861,                                 !- Year Escalation 11
  1.1278,                                 !- Year Escalation 12
  1.1497,                                 !- Year Escalation 13
  1.1620,                                 !- Year Escalation 14
  1.1743,                                 !- Year Escalation 15
  1.1852,                                 !- Year Escalation 16
  1.1948,                                 !- Year Escalation 17
  1.2037,                                 !- Year Escalation 18
  1.2071,                                 !- Year Escalation 19
  1.2119,                                 !- Year Escalation 20
  1.2139,                                 !- Year Escalation 21
  1.2194,                                 !- Year Escalation 22
  1.2276,                                 !- Year Escalation 23
  1.2365,                                 !- Year Escalation 24
  1.2420,                                 !- Year Escalation 25
  1.2461,                                 !- Year Escalation 26
  1.2509,                                 !- Year Escalation 27
  1.2550,                                 !- Year Escalation 28
  1.2591,                                 !- Year Escalation 29
  1.2638;                                 !- Year Escalation 30

LifeCycleCost:UsePriceEscalation,
  U.S. Avg  Commercial-Natural gas,       !- LCC Price Escalation Name
  NaturalGas,                             !- Resource
  2011,                                   !- Escalation Start Year
  January,                                !- Escalation Start Month
  0.9823,                                 !- Year Escalation 1
  0.9557,                                 !- Year Escalation 2
  0.9279,                                 !- Year Escalation 3
  0.9257,                                 !- Year Escalation 4
  0.9346,                                 !- Year Escalation 5
  0.9412,                                 !- Year Escalation 6
  0.9512,                                 !- Year Escalation 7
  0.9645,                                 !- Year Escalation 8
  0.9856,                                 !- Year Escalation 9
  1.0067,                                 !- Year Escalation 10
  1.0222,                                 !- Year Escalation 11
  1.0410,                                 !- Year Escalation 12
  1.0610,                                 !- Year Escalation 13
  1.0787,                                 !- Year Escalation 14
  1.0942,                                 !- Year Escalation 15
  1.1098,                                 !- Year Escalation 16
  1.1220,                                 !- Year Escalation 17
  1.1308,                                 !- Year Escalation 18
  1.1386,                                 !- Year Escalation 19
  1.1486,                                 !- Year Escalation 20
  1.1619,                                 !- Year Escalation 21
  1.1763,                                 !- Year Escalation 22
  1.1918,                                 !- Year Escalation 23
  1.2118,                                 !- Year Escalation 24
  1.2284,                                 !- Year Escalation 25
  1.2439,                                 !- Year Escalation 26
  1.2605,                                 !- Year Escalation 27
  1.2772,                                 !- Year Escalation 28
  1.2938,                                 !- Year Escalation 29
  1.3115;                                 !- Year Escalation 30

LifeCycleCost:UsePriceEscalation,
  U.S. Avg  Commercial-Coal,              !- LCC Price Escalation Name
  Coal,                                   !- Resource
  2011,                                   !- Escalation Start Year
  January,                                !- Escalation Start Month
  0.9970,                                 !- Year Escalation 1
  1.0089,                                 !- Year Escalation 2
  1.0089,                                 !- Year Escalation 3
  0.9941,                                 !- Year Escalation 4
  0.9941,                                 !- Year Escalation 5
  1.0000,                                 !- Year Escalation 6
  1.0030,                                 !- Year Escalation 7
  1.0059,                                 !- Year Escalation 8
  1.0089,                                 !- Year Escalation 9
  1.0119,                                 !- Year Escalation 10
  1.0148,                                 !- Year Escalation 11
  1.0178,                                 !- Year Escalation 12
  1.0208,                                 !- Year Escalation 13
  1.0267,                                 !- Year Escalation 14
  1.0297,                                 !- Year Escalation 15
  1.0356,                                 !- Year Escalation 16
  1.0415,                                 !- Year Escalation 17
  1.0534,                                 !- Year Escalation 18
  1.0564,                                 !- Year Escalation 19
  1.0593,                                 !- Year Escalation 20
  1.0653,                                 !- Year Escalation 21
  1.0712,                                 !- Year Escalation 22
  1.0742,                                 !- Year Escalation 23
  1.0801,                                 !- Year Escalation 24
  1.0831,                                 !- Year Escalation 25
  1.0831,                                 !- Year Escalation 26
  1.0861,                                 !- Year Escalation 27
  1.0890,                                 !- Year Escalation 28
  1.0920,                                 !- Year Escalation 29
  1.0950;                                 !- Year Escalation 30

Building,
  GlassBox ASHRAE 169-2006-4A,            !- Name
  ,                                       !- North Axis {deg}
  ,                                       !- Terrain
  ,                                       !- Loads Convergence Tolerance Value
  ,                                       !- Temperature Convergence Tolerance Value {deltaC}
  ,                                       !- Solar Distribution
  ,                                       !- Maximum Number of Warmup Days
  ;                                       !- Minimum Number of Warmup Days

Zone,
  TZ_Dining,                              !- Name
  -0,                                     !- Direction of Relative North {deg}
  0,                                      !- X Origin {m}
  6.096,                                  !- Y Origin {m}
  0,                                      !- Z Origin {m}
  ,                                       !- Type
  ,                                       !- Multiplier
  ,                                       !- Ceiling Height {m}
  ,                                       !- Volume {m3}
  ,                                       !- Floor Area {m2}
  ,                                       !- Zone Inside Convection Algorithm
  ;                                       !- Zone Outside Convection Algorithm

BuildingSurface:Detailed,
  Dining - Floor_a,                       !- Name
  Floor,                                  !- Surface Type
  ExtSlabCarpet 4in ClimateZone 1-8,      !- Construction Name
  TZ_Dining,                              !- Zone Name
  Ground,                                 !- Outside Boundary Condition
  ,                                       !- Outside Boundary Condition Object
  NoSun,                                  !- Sun Exposure
  NoWind,                                 !- Wind Exposure
  ,                                       !- View Factor to Ground
  ,                                       !- Number of Vertices
  6.096, 6.096, 0,                        !- X,Y,Z Vertex 1 {m}
  6.096, 0, 0,                            !- X,Y,Z Vertex 2 {m}
  0, 0, 0,                                !- X,Y,Z Vertex 3 {m}
  0, 6.096, 0;                            !- X,Y,Z Vertex 4 {m}

BuildingSurface:Detailed,
  Dining - RoofCeiling_a,                 !- Name
  Ceiling,                                !- Surface Type
  Interior Ceiling,                       !- Construction Name
  TZ_Dining,                              !- Zone Name
  Surface,                                !- Outside Boundary Condition
  Plenum - Floor_c,                       !- Outside Boundary Condition Object
  NoSun,                                  !- Sun Exposure
  NoWind,                                 !- Wind Exposure
  ,                                       !- View Factor to Ground
  ,                                       !- Number of Vertices
  6.096, 0, 4.572,                        !- X,Y,Z Vertex 1 {m}
  6.096, 6.096, 4.572,                    !- X,Y,Z Vertex 2 {m}
  0, 6.096, 4.572,                        !- X,Y,Z Vertex 3 {m}
  0, 0, 4.572;                            !- X,Y,Z Vertex 4 {m}

BuildingSurface:Detailed,
  Dining - Wall 000_a,                    !- Name
  Wall,                                   !- Surface Type
  ASHRAE 189.1-2009 ExtWall Mass ClimateZone 3, !- Construction Name
  TZ_Dining,                              !- Zone Name
  Outdoors,                               !- Outside Boundary Condition
  ,                                       !- Outside Boundary Condition Object
  SunExposed,                             !- Sun Exposure
  WindExposed,                            !- Wind Exposure
  ,                                       !- View Factor to Ground
  ,                                       !- Number of Vertices
  6.096, 6.096, 4.572,                    !- X,Y,Z Vertex 1 {m}
  6.096, 6.096, 0,                        !- X,Y,Z Vertex 2 {m}
  0, 6.096, 0,                            !- X,Y,Z Vertex 3 {m}
  0, 6.096, 4.572;                        !- X,Y,Z Vertex 4 {m}

FenestrationSurface:Detailed,
  Dining - Wall 000_a - Sub:a,            !- Name
  Window,                                 !- Surface Type
  ASHRAE 189.1-2009 ExtWindow ClimateZone 3, !- Construction Name
  Dining - Wall 000_a,                    !- Building Surface Name
  ,                                       !- Outside Boundary Condition Object
  ,                                       !- View Factor to Ground
  ,                                       !- Frame and Divider Name
  ,                                       !- Multiplier
  ,                                       !- Number of Vertices
  6.0706, 6.096, 2.75856806722689,        !- X,Y,Z Vertex 1 {m}
  6.0706, 6.096, 0.9144,                  !- X,Y,Z Vertex 2 {m}
  0.0253999999999994, 6.096, 0.9144,      !- X,Y,Z Vertex 3 {m}
  0.0253999999999994, 6.096, 2.75856806722689; !- X,Y,Z Vertex 4 {m}

BuildingSurface:Detailed,
  Dining - Wall 090_a,                    !- Name
  Wall,                                   !- Surface Type
  Interior Wall,                          !- Construction Name
  TZ_Dining,                              !- Zone Name
  Surface,                                !- Outside Boundary Condition
  Kitchen - Wall 270_a,                   !- Outside Boundary Condition Object
  NoSun,                                  !- Sun Exposure
  NoWind,                                 !- Wind Exposure
  ,                                       !- View Factor to Ground
  ,                                       !- Number of Vertices
  6.096, 0, 4.572,                        !- X,Y,Z Vertex 1 {m}
  6.096, 0, 0,                            !- X,Y,Z Vertex 2 {m}
  6.096, 6.096, 0,                        !- X,Y,Z Vertex 3 {m}
  6.096, 6.096, 4.572;                    !- X,Y,Z Vertex 4 {m}

BuildingSurface:Detailed,
  Dining - Wall 180_a,                    !- Name
  Wall,                                   !- Surface Type
  Interior Wall,                          !- Construction Name
  TZ_Dining,                              !- Zone Name
  Surface,                                !- Outside Boundary Condition
  Lobby - Wall 000_a,                     !- Outside Boundary Condition Object
  NoSun,                                  !- Sun Exposure
  NoWind,                                 !- Wind Exposure
  ,                                       !- View Factor to Ground
  ,                                       !- Number of Vertices
  0, 0, 4.572,                            !- X,Y,Z Vertex 1 {m}
  0, 0, 0,                                !- X,Y,Z Vertex 2 {m}
  6.096, 0, 0,                            !- X,Y,Z Vertex 3 {m}
  6.096, 0, 4.572;                        !- X,Y,Z Vertex 4 {m}

BuildingSurface:Detailed,
  Dining - Wall 270_a,                    !- Name
  Wall,                                   !- Surface Type
  ASHRAE 189.1-2009 ExtWall Mass ClimateZone 3, !- Construction Name
  TZ_Dining,                              !- Zone Name
  Outdoors,                               !- Outside Boundary Condition
  ,                                       !- Outside Boundary Condition Object
  SunExposed,                             !- Sun Exposure
  WindExposed,                            !- Wind Exposure
  ,                                       !- View Factor to Ground
  ,                                       !- Number of Vertices
  0, 6.096, 4.572,                        !- X,Y,Z Vertex 1 {m}
  0, 6.096, 0,                            !- X,Y,Z Vertex 2 {m}
  0, 0, 0,                                !- X,Y,Z Vertex 3 {m}
  0, 0, 4.572;                            !- X,Y,Z Vertex 4 {m}

FenestrationSurface:Detailed,
  Dining - Wall 270_a - Sub:a,            !- Name
  Window,                                 !- Surface Type
  ASHRAE 189.1-2009 ExtWindow ClimateZone 3, !- Construction Name
  Dining - Wall 270_a,                    !- Building Surface Name
  ,                                       !- Outside Boundary Condition Object
  ,                                       !- View Factor to Ground
  ,                                       !- Frame and Divider Name
  ,                                       !- Multiplier
  ,                                       !- Number of Vertices
  0, 6.0706, 2.75856806722689,            !- X,Y,Z Vertex 1 {m}
  0, 6.0706, 0.9144,                      !- X,Y,Z Vertex 2 {m}
  0, 0.0253999999999994, 0.9144,          !- X,Y,Z Vertex 3 {m}
  0, 0.0253999999999994, 2.75856806722689; !- X,Y,Z Vertex 4 {m}

ZoneControl:Thermostat,
  TZ_Dining Thermostat,                   !- Name
  TZ_Dining,                              !- Zone or ZoneList Name
  TZ_Dining Thermostat Schedule,          !- Control Type Schedule Name
  ThermostatSetpoint:DualSetpoint,        !- Control Object Type 1
  Thermostat Setpoint Dual Setpoint 1;    !- Control Name 1

Schedule:Compact,
  TZ_Dining Thermostat Schedule,          !- Name
  TZ_Dining Thermostat Schedule Type Limits, !- Schedule Type Limits Name
  Through: 12/31,                         !- Field 1
  For: AllDays,                           !- Field 2
  Until: 24:00,                           !- Field 3
  4;                                      !- Field 4

ScheduleTypeLimits,
  TZ_Dining Thermostat Schedule Type Limits, !- Name
  0,                                      !- Lower Limit Value {BasedOnField A3}
  4,                                      !- Upper Limit Value {BasedOnField A3}
  DISCRETE;                               !- Numeric Type

ThermostatSetpoint:DualSetpoint,
  Thermostat Setpoint Dual Setpoint 1,    !- Name
  QuickServiceRestaurant HtgSetp,         !- Heating Setpoint Temperature Schedule Name
  QuickServiceRestaurant ClgSetp;         !- Cooling Setpoint Temperature Schedule Name

ScheduleTypeLimits,
  Temperature 54,                         !- Name
  ,                                       !- Lower Limit Value {BasedOnField A3}
  ,                                       !- Upper Limit Value {BasedOnField A3}
  Continuous,                             !- Numeric Type
  temperature;                            !- Unit Type

Schedule:Day:Interval,
  QuickServiceRestaurant HtgSetp Default Schedule, !- Name
  Temperature 54,                         !- Schedule Type Limits Name
  No,                                     !- Interpolate to Timestep
  01:00,                                  !- Time 1 {hh:mm}
  21,                                     !- Value Until Time 1
  05:00,                                  !- Time 2 {hh:mm}
  15.6,                                   !- Value Until Time 2
  24:00,                                  !- Time 3 {hh:mm}
  21;                                     !- Value Until Time 3

Schedule:Week:Daily,
  QuickServiceRestaurant HtgSetp Week Rule - Jan1-Dec31, !- Name
  QuickServiceRestaurant HtgSetp Default Schedule, !- Sunday Schedule:Day Name
  QuickServiceRestaurant HtgSetp Default Schedule, !- Monday Schedule:Day Name
  QuickServiceRestaurant HtgSetp Default Schedule, !- Tuesday Schedule:Day Name
  QuickServiceRestaurant HtgSetp Default Schedule, !- Wednesday Schedule:Day Name
  QuickServiceRestaurant HtgSetp Default Schedule, !- Thursday Schedule:Day Name
  QuickServiceRestaurant HtgSetp Default Schedule, !- Friday Schedule:Day Name
  QuickServiceRestaurant HtgSetp Default Schedule, !- Saturday Schedule:Day Name
  QuickServiceRestaurant HtgSetp Default Schedule, !- Holiday Schedule:Day Name
  QuickServiceRestaurant HtgSetp Summer Design Day, !- SummerDesignDay Schedule:Day Name
  QuickServiceRestaurant HtgSetp Winter Design Day, !- WinterDesignDay Schedule:Day Name
  QuickServiceRestaurant HtgSetp Default Schedule, !- CustomDay1 Schedule:Day Name
  QuickServiceRestaurant HtgSetp Default Schedule; !- CustomDay2 Schedule:Day Name

Schedule:Year,
  QuickServiceRestaurant HtgSetp,         !- Name
  Temperature 54,                         !- Schedule Type Limits Name
  QuickServiceRestaurant HtgSetp Week Rule - Jan1-Dec31, !- Schedule:Week Name 1
  1,                                      !- Start Month 1
  1,                                      !- Start Day 1
  12,                                     !- End Month 1
  31;                                     !- End Day 1

Schedule:Day:Interval,
  QuickServiceRestaurant HtgSetp Summer Design Day, !- Name
  Temperature 54,                         !- Schedule Type Limits Name
  No,                                     !- Interpolate to Timestep
  24:00,                                  !- Time 1 {hh:mm}
  15.6;                                   !- Value Until Time 1

Schedule:Day:Interval,
  QuickServiceRestaurant HtgSetp Winter Design Day, !- Name
  Temperature 54,                         !- Schedule Type Limits Name
  No,                                     !- Interpolate to Timestep
  24:00,                                  !- Time 1 {hh:mm}
  21;                                     !- Value Until Time 1

ScheduleTypeLimits,
  Temperature 16,                         !- Name
  ,                                       !- Lower Limit Value {BasedOnField A3}
  ,                                       !- Upper Limit Value {BasedOnField A3}
  Continuous,                             !- Numeric Type
  temperature;                            !- Unit Type

Schedule:Day:Interval,
  QuickServiceRestaurant ClgSetp Default Schedule, !- Name
  Temperature 16,                         !- Schedule Type Limits Name
  No,                                     !- Interpolate to Timestep
  01:00,                                  !- Time 1 {hh:mm}
  24,                                     !- Value Until Time 1
  05:00,                                  !- Time 2 {hh:mm}
  30,                                     !- Value Until Time 2
  24:00,                                  !- Time 3 {hh:mm}
  24;                                     !- Value Until Time 3

Schedule:Week:Daily,
  QuickServiceRestaurant ClgSetp Week Rule - Jan1-Dec31, !- Name
  QuickServiceRestaurant ClgSetp Default Schedule, !- Sunday Schedule:Day Name
  QuickServiceRestaurant ClgSetp Default Schedule, !- Monday Schedule:Day Name
  QuickServiceRestaurant ClgSetp Default Schedule, !- Tuesday Schedule:Day Name
  QuickServiceRestaurant ClgSetp Default Schedule, !- Wednesday Schedule:Day Name
  QuickServiceRestaurant ClgSetp Default Schedule, !- Thursday Schedule:Day Name
  QuickServiceRestaurant ClgSetp Default Schedule, !- Friday Schedule:Day Name
  QuickServiceRestaurant ClgSetp Default Schedule, !- Saturday Schedule:Day Name
  QuickServiceRestaurant ClgSetp Default Schedule, !- Holiday Schedule:Day Name
  QuickServiceRestaurant ClgSetp Summer Design Day, !- SummerDesignDay Schedule:Day Name
  QuickServiceRestaurant ClgSetp Winter Design Day, !- WinterDesignDay Schedule:Day Name
  QuickServiceRestaurant ClgSetp Default Schedule, !- CustomDay1 Schedule:Day Name
  QuickServiceRestaurant ClgSetp Default Schedule; !- CustomDay2 Schedule:Day Name

Schedule:Year,
  QuickServiceRestaurant ClgSetp,         !- Name
  Temperature 16,                         !- Schedule Type Limits Name
  QuickServiceRestaurant ClgSetp Week Rule - Jan1-Dec31, !- Schedule:Week Name 1
  1,                                      !- Start Month 1
  1,                                      !- Start Day 1
  12,                                     !- End Month 1
  31;                                     !- End Day 1

Schedule:Day:Interval,
  QuickServiceRestaurant ClgSetp Summer Design Day, !- Name
  Temperature 16,                         !- Schedule Type Limits Name
  No,                                     !- Interpolate to Timestep
  01:00,                                  !- Time 1 {hh:mm}
  24,                                     !- Value Until Time 1
  05:00,                                  !- Time 2 {hh:mm}
  30,                                     !- Value Until Time 2
  24:00,                                  !- Time 3 {hh:mm}
  24;                                     !- Value Until Time 3

Schedule:Day:Interval,
  QuickServiceRestaurant ClgSetp Winter Design Day, !- Name
  Temperature 16,                         !- Schedule Type Limits Name
  No,                                     !- Interpolate to Timestep
  24:00,                                  !- Time 1 {hh:mm}
  30;                                     !- Value Until Time 1

ZoneHVAC:EquipmentConnections,
  TZ_Dining,                              !- Zone Name
  TZ_Dining Equipment List,               !- Zone Conditioning Equipment List Name
  TZ_Dining Inlet Node List,              !- Zone Air Inlet Node or NodeList Name
  ,                                       !- Zone Air Exhaust Node or NodeList Name
  TZ_Dining Zone Air Node,                !- Zone Air Node Name
  TZ_Dining Return Node List;             !- Zone Return Air Node or NodeList Name

NodeList,
  TZ_Dining Inlet Node List,              !- Name
  TZ_Dining VAV Terminal Outlet Air Node; !- Node Name 1

NodeList,
  TZ_Dining Return Node List,             !- Name
  TZ_Dining Return Air Node;              !- Node Name 1

ZoneHVAC:AirDistributionUnit,
  ADU TZ_Dining VAV Terminal,             !- Name
  TZ_Dining VAV Terminal Outlet Air Node, !- Air Distribution Unit Outlet Node Name
  AirTerminal:SingleDuct:VAV:Reheat,      !- Air Terminal Object Type
  TZ_Dining VAV Terminal;                 !- Air Terminal Name

AirTerminal:SingleDuct:VAV:Reheat,
  TZ_Dining VAV Terminal,                 !- Name
  Always On Discrete,                     !- Availability Schedule Name
  TZ_Dining VAV Terminal Damper Outlet,   !- Damper Air Outlet Node Name
  TZ_Dining VAV Terminal Inlet Air Node,  !- Air Inlet Node Name
  Autosize,                               !- Maximum Air Flow Rate {m3/s}
  Constant,                               !- Zone Minimum Air Flow Input Method
  0.1,                                    !- Constant Minimum Air Flow Fraction
  0,                                      !- Fixed Minimum Air Flow Rate {m3/s}