
OS:Version,
  {0ac9ac71-5cb1-4f87-83ac-8a37aef9ab1d}, !- Handle
  2.9.0;                                  !- Version Identifier

OS:Site,
  {aaf53b52-7a67-4274-9ff1-6a6235dcb244}, !- Handle
  Site 1,                                 !- Name
  ,                                       !- Latitude {deg}
  ,                                       !- Longitude {deg}
  ,                                       !- Time Zone {hr}
  ,                                       !- Elevation {m}
  ;                                       !- Terrain

OS:YearDescription,
  {5a96bc5e-d3ba-42a4-b34e-21b0e8cc87a9}; !- Handle

OS:ClimateZones,
  {d992d5fd-bb24-41e6-8276-1181114b123e}, !- Handle
  ,                                       !- Active Institution
  ,                                       !- Active Year
  ,                                       !- Climate Zone Institution Name 1
  ,                                       !- Climate Zone Document Name 1
  ,                                       !- Climate Zone Document Year 1
  ,                                       !- Climate Zone Value 1
  CEC,                                    !- Climate Zone Institution Name 2
  California Climate Zone Descriptions,   !- Climate Zone Document Name 2
  1995,                                   !- Climate Zone Document Year 2
  ;                                       !- Climate Zone Value 2

OS:Building,
  {defa9923-c632-4318-916a-59d582963117}, !- Handle
  Building 1,                             !- Name
  ,                                       !- Building Sector Type
  ,                                       !- North Axis {deg}
  ,                                       !- Nominal Floor to Floor Height {m}
  ,                                       !- Space Type Name
  ,                                       !- Default Construction Set Name
  ;                                       !- Default Schedule Set Name

OS:Facility,
  {7dd2c944-90af-41af-9feb-ca61a588305e}; !- Handle

OS:SimulationControl,
  {30a76bac-b332-403c-82ab-b9cd7faad073}; !- Handle

OS:Sizing:Parameters,
  {9148e3fe-28c8-4cfd-862f-78f64ddd0c01}, !- Handle
  1.25,                                   !- Heating Sizing Factor
  1.15;                                   !- Cooling Sizing Factor

OS:Timestep,
  {99b70cc9-1d85-498e-acea-4c9e83ac5398}, !- Handle
  6;                                      !- Number of Timesteps per Hour

OS:ShadowCalculation,
  {68b25137-c456-4ab7-b818-230ac657b0b0}, !- Handle
  20,                                     !- Calculation Frequency
  15000;                                  !- Maximum Figures in Shadow Overlap Calculations

OS:HeatBalanceAlgorithm,
  {1e25a8c5-9137-4a37-a36a-0c8e6af2a434}, !- Handle
  ConductionTransferFunction,             !- Algorithm
  200;                                    !- Surface Temperature Upper Limit {C}

OS:RunPeriod,
  {d6fe0252-eab6-48b4-b5fa-5a2bf6423dc3}, !- Handle
  Run Period 1,                           !- Name
  1,                                      !- Begin Month
  1,                                      !- Begin Day of Month
  12,                                     !- End Month
  31,                                     !- End Day of Month
  ,                                       !- Use Weather File Holidays and Special Days
  ,                                       !- Use Weather File Daylight Saving Period
  ,                                       !- Apply Weekend Holiday Rule
  ,                                       !- Use Weather File Rain Indicators
  ,                                       !- Use Weather File Snow Indicators
  ;                                       !- Number of Times Runperiod to be Repeated

OS:LifeCycleCost:Parameters,
  {abcd7c17-6b1b-4a61-a137-737c34f440aa}, !- Handle
  ,                                       !- Analysis Type
  ,                                       !- Discounting Convention
  ,                                       !- Inflation Approach
  ,                                       !- Real Discount Rate
  ,                                       !- Nominal Discount Rate
  ,                                       !- Inflation
  ,                                       !- Base Date Month
  ,                                       !- Base Date Year
  ,                                       !- Service Date Month
  ,                                       !- Service Date Year
  ;                                       !- Length of Study Period in Years

OS:Space,
  {335cb915-5400-4f2c-8b65-e8ffe846968f}, !- Handle
  Space 4 - 1,                            !- Name
  ,                                       !- Space Type Name
  ,                                       !- Default Construction Set Name
  ,                                       !- Default Schedule Set Name
  ,                                       !- Direction of Relative North {deg}
  ,                                       !- X Origin {m}
  ,                                       !- Y Origin {m}
  ,                                       !- Z Origin {m}
  {8d3b8754-e002-4ece-b668-5848e460b73c}, !- Building Story Name
  {6a1ad0b3-5d0e-431d-80bd-26948d152c21}, !- Thermal Zone Name
  ,                                       !- Part of Total Floor Area
  ,                                       !- Design Specification Outdoor Air Object Name
  ;                                       !- Building Unit Name

OS:Surface,
  {3b444085-2028-4fe8-8d8c-9cc11ebac2ce}, !- Handle
  Face 42,                                !- Name
  Floor,                                  !- Surface Type
  ,                                       !- Construction Name
  {335cb915-5400-4f2c-8b65-e8ffe846968f}, !- Space Name
  Surface,                                !- Outside Boundary Condition
  {358878ec-b847-49c2-bb1a-65face967161}, !- Outside Boundary Condition Object
  NoSun,                                  !- Sun Exposure
  NoWind,                                 !- Wind Exposure
  ,                                       !- View Factor to Ground
  ,                                       !- Number of Vertices
  -32.004, 19.812, 7.3152,                !- X,Y,Z Vertex 1 {m}
  -32.004, 1.524, 7.3152,                 !- X,Y,Z Vertex 2 {m}
  -45.72, 1.524, 7.3152,                  !- X,Y,Z Vertex 3 {m}
  -45.72, 19.812, 7.3152;                 !- X,Y,Z Vertex 4 {m}

OS:Surface,
  {16a32e5e-b145-4b13-894b-f6e5bedb7b36}, !- Handle
  Face 43,                                !- Name
  RoofCeiling,                            !- Surface Type
  ,                                       !- Construction Name
  {335cb915-5400-4f2c-8b65-e8ffe846968f}, !- Space Name
  Outdoors,                               !- Outside Boundary Condition
  ,                                       !- Outside Boundary Condition Object
  SunExposed,                             !- Sun Exposure
  WindExposed,                            !- Wind Exposure
  ,                                       !- View Factor to Ground
  ,                                       !- Number of Vertices
  -45.72, 19.812, 9.7536,                 !- X,Y,Z Vertex 1 {m}
  -45.72, 1.524, 9.7536,                  !- X,Y,Z Vertex 2 {m}
  -32.004, 1.524, 9.7536,                 !- X,Y,Z Vertex 3 {m}
  -32.004, 19.812, 9.7536;                !- X,Y,Z Vertex 4 {m}

OS:Surface,
  {7fcee744-4ccb-4fcb-8356-56132b9349ad}, !- Handle
  Face 44,                                !- Name
  Wall,                                   !- Surface Type
  ,                                       !- Construction Name
  {335cb915-5400-4f2c-8b65-e8ffe846968f}, !- Space Name
  Surface,                                !- Outside Boundary Condition
  {1c18f092-6240-4245-89cc-f9bda3a9d016}, !- Outside Boundary Condition Object
  NoSun,                                  !- Sun Exposure
  NoWind,                                 !- Wind Exposure
  ,                                       !- View Factor to Ground
  ,                                       !- Number of Vertices
  -32.004, 19.812, 9.7536,                !- X,Y,Z Vertex 1 {m}
  -32.004, 1.524, 9.7536,                 !- X,Y,Z Vertex 2 {m}
  -32.004, 1.524, 7.3152,                 !- X,Y,Z Vertex 3 {m}
  -32.004, 19.812, 7.3152;                !- X,Y,Z Vertex 4 {m}

OS:Surface,
  {985675be-edbe-486b-9ff2-8141bd2f75af}, !- Handle
  Face 45,                                !- Name
  Wall,                                   !- Surface Type
  ,                                       !- Construction Name
  {335cb915-5400-4f2c-8b65-e8ffe846968f}, !- Space Name
  Outdoors,                               !- Outside Boundary Condition
  ,                                       !- Outside Boundary Condition Object
  SunExposed,                             !- Sun Exposure
  WindExposed,                            !- Wind Exposure
  ,                                       !- View Factor to Ground
  ,                                       !- Number of Vertices
  -32.004, 1.524, 9.7536,                 !- X,Y,Z Vertex 1 {m}
  -45.72, 1.524, 9.7536,                  !- X,Y,Z Vertex 2 {m}
  -45.72, 1.524, 7.3152,                  !- X,Y,Z Vertex 3 {m}
  -32.004, 1.524, 7.3152;                 !- X,Y,Z Vertex 4 {m}

OS:Surface,
  {40c213b2-1d51-4835-8675-33b81d4c8104}, !- Handle
  Face 46,                                !- Name
  Wall,                                   !- Surface Type
  ,                                       !- Construction Name
  {335cb915-5400-4f2c-8b65-e8ffe846968f}, !- Space Name
  Outdoors,                               !- Outside Boundary Condition
  ,                                       !- Outside Boundary Condition Object
  SunExposed,                             !- Sun Exposure
  WindExposed,                            !- Wind Exposure
  ,                                       !- View Factor to Ground
  ,                                       !- Number of Vertices
  -45.72, 1.524, 9.7536,                  !- X,Y,Z Vertex 1 {m}
  -45.72, 19.812, 9.7536,                 !- X,Y,Z Vertex 2 {m}
  -45.72, 19.812, 7.3152,                 !- X,Y,Z Vertex 3 {m}
  -45.72, 1.524, 7.3152;                  !- X,Y,Z Vertex 4 {m}

OS:Surface,
  {09d1b5e5-88f8-4af9-a5e2-afc7fdd45115}, !- Handle
  Face 47,                                !- Name
  Wall,                                   !- Surface Type
  ,                                       !- Construction Name
  {335cb915-5400-4f2c-8b65-e8ffe846968f}, !- Space Name
  Outdoors,                               !- Outside Boundary Condition
  ,                                       !- Outside Boundary Condition Object
  SunExposed,                             !- Sun Exposure
  WindExposed,                            !- Wind Exposure
  ,                                       !- View Factor to Ground
  ,                                       !- Number of Vertices
  -45.72, 19.812, 9.7536,                 !- X,Y,Z Vertex 1 {m}
  -32.004, 19.812, 9.7536,                !- X,Y,Z Vertex 2 {m}
  -32.004, 19.812, 7.3152,                !- X,Y,Z Vertex 3 {m}
  -45.72, 19.812, 7.3152;                 !- X,Y,Z Vertex 4 {m}

OS:BuildingStory,
  {8d3b8754-e002-4ece-b668-5848e460b73c}, !- Handle
  Story 4,                                !- Name
  7.3152,                                 !- Nominal Z Coordinate {m}
  2.4384,                                 !- Nominal Floor to Floor Height {m}
  ,                                       !- Default Construction Set Name
  ,                                       !- Default Schedule Set Name
  {25a80c55-4e01-4e0b-ab74-656a6f21844d}, !- Group Rendering Name
  2.4384;                                 !- Nominal Floor to Ceiling Height {m}

OS:Rendering:Color,
  {25a80c55-4e01-4e0b-ab74-656a6f21844d}, !- Handle
  Rendering Color 1,                      !- Name
  153,                                    !- Rendering Red Value
  153,                                    !- Rendering Green Value
  51;                                     !- Rendering Blue Value

OS:Space,
  {b386d601-1e53-48bb-8ca4-645a9a2bd95b}, !- Handle
  Space 3 - 2,                            !- Name
  ,                                       !- Space Type Name
  ,                                       !- Default Construction Set Name
  ,                                       !- Default Schedule Set Name
  ,                                       !- Direction of Relative North {deg}
  ,                                       !- X Origin {m}
  ,                                       !- Y Origin {m}
  ,                                       !- Z Origin {m}
  {26b50923-5ddd-40c4-ac80-f68e79771734}, !- Building Story Name
  {0ba9e578-7b8f-45f6-9142-e05ddd32b68a}, !- Thermal Zone Name
  ,                                       !- Part of Total Floor Area
  ,                                       !- Design Specification Outdoor Air Object Name
  ;                                       !- Building Unit Name

OS:Surface,
  {6578f8d4-1dc4-4af2-a8df-9883fe69d255}, !- Handle
  Face 36,                                !- Name
  Floor,                                  !- Surface Type
  ,                                       !- Construction Name
  {b386d601-1e53-48bb-8ca4-645a9a2bd95b}, !- Space Name
  Surface,                                !- Outside Boundary Condition
  {6d19017c-bcb6-4591-bc23-50116ac05e71}, !- Outside Boundary Condition Object
  NoSun,                                  !- Sun Exposure
  NoWind,                                 !- Wind Exposure
  ,                                       !- View Factor to Ground
  ,                                       !- Number of Vertices
  -15.24, 19.812, 4.8768,                 !- X,Y,Z Vertex 1 {m}
  -15.24, 1.524, 4.8768,                  !- X,Y,Z Vertex 2 {m}
  -32.004, 1.524, 4.8768,                 !- X,Y,Z Vertex 3 {m}
  -32.004, 19.812, 4.8768;                !- X,Y,Z Vertex 4 {m}

OS:Surface,
  {9c8347d6-757d-4ba2-8d12-3e18b2acc4ee}, !- Handle
  Face 37,                                !- Name
  RoofCeiling,                            !- Surface Type
  ,                                       !- Construction Name
  {b386d601-1e53-48bb-8ca4-645a9a2bd95b}, !- Space Name
  Surface,                                !- Outside Boundary Condition
  {000bc48e-79d0-4e22-96a0-b0de8ddbe4ae}, !- Outside Boundary Condition Object
  NoSun,                                  !- Sun Exposure
  NoWind,                                 !- Wind Exposure
  ,                                       !- View Factor to Ground
  ,                                       !- Number of Vertices
  -32.004, 19.812, 7.3152,                !- X,Y,Z Vertex 1 {m}
  -32.004, 1.524, 7.3152,                 !- X,Y,Z Vertex 2 {m}
  -15.24, 1.524, 7.3152,                  !- X,Y,Z Vertex 3 {m}
  -15.24, 19.812, 7.3152;                 !- X,Y,Z Vertex 4 {m}

OS:Surface,
  {42061916-a393-4902-81f7-5bd696ccf743}, !- Handle
  Face 38,                                !- Name
  Wall,                                   !- Surface Type
  ,                                       !- Construction Name
  {b386d601-1e53-48bb-8ca4-645a9a2bd95b}, !- Space Name
  Outdoors,                               !- Outside Boundary Condition
  ,                                       !- Outside Boundary Condition Object
  SunExposed,                             !- Sun Exposure
  WindExposed,                            !- Wind Exposure
  ,                                       !- View Factor to Ground
  ,                                       !- Number of Vertices
  -15.24, 19.812, 7.3152,                 !- X,Y,Z Vertex 1 {m}
  -15.24, 1.524, 7.3152,                  !- X,Y,Z Vertex 2 {m}
  -15.24, 1.524, 4.8768,                  !- X,Y,Z Vertex 3 {m}
  -15.24, 19.812, 4.8768;                 !- X,Y,Z Vertex 4 {m}

OS:Surface,
  {1fbffc15-9549-40b0-bd00-ad2e6f7f2afd}, !- Handle
  Face 39,                                !- Name
  Wall,                                   !- Surface Type
  ,                                       !- Construction Name
  {b386d601-1e53-48bb-8ca4-645a9a2bd95b}, !- Space Name
  Outdoors,                               !- Outside Boundary Condition
  ,                                       !- Outside Boundary Condition Object
  SunExposed,                             !- Sun Exposure
  WindExposed,                            !- Wind Exposure
  ,                                       !- View Factor to Ground
  ,                                       !- Number of Vertices
  -15.24, 1.524, 7.3152,                  !- X,Y,Z Vertex 1 {m}
  -32.004, 1.524, 7.3152,                 !- X,Y,Z Vertex 2 {m}
  -32.004, 1.524, 4.8768,                 !- X,Y,Z Vertex 3 {m}
  -15.24, 1.524, 4.8768;                  !- X,Y,Z Vertex 4 {m}

OS:Surface,
  {a6b5ce0c-f792-416a-9ff8-047fdc7dd4e8}, !- Handle
  Face 40,                                !- Name
  Wall,                                   !- Surface Type
  ,                                       !- Construction Name
  {b386d601-1e53-48bb-8ca4-645a9a2bd95b}, !- Space Name
  Surface,                                !- Outside Boundary Condition
  {f57e7b9d-f3d5-46ba-8a16-ad9d688eafb8}, !- Outside Boundary Condition Object
  NoSun,                                  !- Sun Exposure
  NoWind,                                 !- Wind Exposure
  ,                                       !- View Factor to Ground
  ,                                       !- Number of Vertices
  -32.004, 1.524, 7.3152,                 !- X,Y,Z Vertex 1 {m}
  -32.004, 19.812, 7.3152,                !- X,Y,Z Vertex 2 {m}
  -32.004, 19.812, 4.8768,                !- X,Y,Z Vertex 3 {m}
  -32.004, 1.524, 4.8768;                 !- X,Y,Z Vertex 4 {m}

OS:Surface,
  {065e4644-8a37-44a9-a002-9f819c33789f}, !- Handle
  Face 41,                                !- Name
  Wall,                                   !- Surface Type
  ,                                       !- Construction Name
  {b386d601-1e53-48bb-8ca4-645a9a2bd95b}, !- Space Name
  Outdoors,                               !- Outside Boundary Condition
  ,                                       !- Outside Boundary Condition Object
  SunExposed,                             !- Sun Exposure
  WindExposed,                            !- Wind Exposure
  ,                                       !- View Factor to Ground
  ,                                       !- Number of Vertices
  -32.004, 19.812, 7.3152,                !- X,Y,Z Vertex 1 {m}
  -15.24, 19.812, 7.3152,                 !- X,Y,Z Vertex 2 {m}
  -15.24, 19.812, 4.8768,                 !- X,Y,Z Vertex 3 {m}
  -32.004, 19.812, 4.8768;                !- X,Y,Z Vertex 4 {m}

OS:BuildingStory,
  {26b50923-5ddd-40c4-ac80-f68e79771734}, !- Handle
  Story 3,                                !- Name
  4.8768,                                 !- Nominal Z Coordinate {m}
  2.4384,                                 !- Nominal Floor to Floor Height {m}
  ,                                       !- Default Construction Set Name
  ,                                       !- Default Schedule Set Name
  {83333b32-10ca-4d97-9489-7366e856435f}, !- Group Rendering Name
  2.4384;                                 !- Nominal Floor to Ceiling Height {m}

OS:Rendering:Color,
  {83333b32-10ca-4d97-9489-7366e856435f}, !- Handle
  Rendering Color 2,                      !- Name
  17,                                     !- Rendering Red Value
  119,                                    !- Rendering Green Value
  51;                                     !- Rendering Blue Value

OS:Space,
  {cce49e9f-f9cf-47b1-a4c6-98eb8eaaf411}, !- Handle
  Space 3 - 1,                            !- Name
  ,                                       !- Space Type Name
  ,                                       !- Default Construction Set Name
  ,                                       !- Default Schedule Set Name
  ,                                       !- Direction of Relative North {deg}
  ,                                       !- X Origin {m}
  ,                                       !- Y Origin {m}
  ,                                       !- Z Origin {m}
  {26b50923-5ddd-40c4-ac80-f68e79771734}, !- Building Story Name
  {e8066f4f-e224-4417-a9a8-a680b12a4214}, !- Thermal Zone Name
  ,                                       !- Part of Total Floor Area
  ,                                       !- Design Specification Outdoor Air Object Name
  ;                                       !- Building Unit Name

OS:Surface,
  {fdd6d6d1-8644-479b-80ac-1ce6961b9c18}, !- Handle
  Face 30,                                !- Name
  Floor,                                  !- Surface Type
  {fdf5c0b2-c2eb-4377-8437-dc5234b1d176}, !- Construction Name
  {cce49e9f-f9cf-47b1-a4c6-98eb8eaaf411}, !- Space Name
  Surface,                                !- Outside Boundary Condition
  {4f7ac82b-7fa8-4860-8eda-fd2432f292fb}, !- Outside Boundary Condition Object
  NoSun,                                  !- Sun Exposure
  NoWind,                                 !- Wind Exposure
  ,                                       !- View Factor to Ground
  ,                                       !- Number of Vertices
  -32.004, 19.812, 4.8768,                !- X,Y,Z Vertex 1 {m}
  -32.004, 1.524, 4.8768,                 !- X,Y,Z Vertex 2 {m}
  -45.72, 1.524, 4.8768,                  !- X,Y,Z Vertex 3 {m}
  -45.72, 19.812, 4.8768;                 !- X,Y,Z Vertex 4 {m}

OS:Surface,
  {358878ec-b847-49c2-bb1a-65face967161}, !- Handle
  Face 31,                                !- Name
  RoofCeiling,                            !- Surface Type
  {fdf5c0b2-c2eb-4377-8437-dc5234b1d176}, !- Construction Name
  {cce49e9f-f9cf-47b1-a4c6-98eb8eaaf411}, !- Space Name
  Surface,                                !- Outside Boundary Condition
  {3b444085-2028-4fe8-8d8c-9cc11ebac2ce}, !- Outside Boundary Condition Object
  NoSun,                                  !- Sun Exposure
  NoWind,                                 !- Wind Exposure
  ,                                       !- View Factor to Ground
  ,                                       !- Number of Vertices
  -45.72, 19.812, 7.3152,                 !- X,Y,Z Vertex 1 {m}
  -45.72, 1.524, 7.3152,                  !- X,Y,Z Vertex 2 {m}
  -32.004, 1.524, 7.3152,                 !- X,Y,Z Vertex 3 {m}
  -32.004, 19.812, 7.3152;                !- X,Y,Z Vertex 4 {m}

OS:Surface,
  {f57e7b9d-f3d5-46ba-8a16-ad9d688eafb8}, !- Handle
  Face 32,                                !- Name
  Wall,                                   !- Surface Type
  ,                                       !- Construction Name
  {cce49e9f-f9cf-47b1-a4c6-98eb8eaaf411}, !- Space Name
  Surface,                                !- Outside Boundary Condition
  {a6b5ce0c-f792-416a-9ff8-047fdc7dd4e8}, !- Outside Boundary Condition Object
  NoSun,                                  !- Sun Exposure
  NoWind,                                 !- Wind Exposure
  ,                                       !- View Factor to Ground
  ,                                       !- Number of Vertices
  -32.004, 19.812, 7.3152,                !- X,Y,Z Vertex 1 {m}
  -32.004, 1.524, 7.3152,                 !- X,Y,Z Vertex 2 {m}
  -32.004, 1.524, 4.8768,                 !- X,Y,Z Vertex 3 {m}
  -32.004, 19.812, 4.8768;                !- X,Y,Z Vertex 4 {m}

OS:Surface,
  {6217b7d3-67f9-4c70-9f9d-ebdb67e0bdcc}, !- Handle
  Face 33,                                !- Name
  Wall,                                   !- Surface Type
  ,                                       !- Construction Name
  {cce49e9f-f9cf-47b1-a4c6-98eb8eaaf411}, !- Space Name
  Outdoors,                               !- Outside Boundary Condition
  ,                                       !- Outside Boundary Condition Object
  SunExposed,                             !- Sun Exposure
  WindExposed,                            !- Wind Exposure
  ,                                       !- View Factor to Ground
  ,                                       !- Number of Vertices
  -32.004, 1.524, 7.3152,                 !- X,Y,Z Vertex 1 {m}
  -45.72, 1.524, 7.3152,                  !- X,Y,Z Vertex 2 {m}
  -45.72, 1.524, 4.8768,                  !- X,Y,Z Vertex 3 {m}
  -32.004, 1.524, 4.8768;                 !- X,Y,Z Vertex 4 {m}

OS:Surface,
  {371c1f7a-eb80-4bbc-881d-c8144a9dd922}, !- Handle
  Face 34,                                !- Name
  Wall,                                   !- Surface Type
  ,                                       !- Construction Name
  {cce49e9f-f9cf-47b1-a4c6-98eb8eaaf411}, !- Space Name
  Outdoors,                               !- Outside Boundary Condition
  ,                                       !- Outside Boundary Condition Object
  SunExposed,                             !- Sun Exposure
  WindExposed,                            !- Wind Exposure
  ,                                       !- View Factor to Ground
  ,                                       !- Number of Vertices
  -45.72, 1.524, 7.3152,                  !- X,Y,Z Vertex 1 {m}
  -45.72, 19.812, 7.3152,                 !- X,Y,Z Vertex 2 {m}
  -45.72, 19.812, 4.8768,                 !- X,Y,Z Vertex 3 {m}
  -45.72, 1.524, 4.8768;                  !- X,Y,Z Vertex 4 {m}

OS:Surface,
  {b2e981f9-9087-4867-89ef-af811f85e5c1}, !- Handle
  Face 35,                                !- Name
  Wall,                                   !- Surface Type
  ,                                       !- Construction Name
  {cce49e9f-f9cf-47b1-a4c6-98eb8eaaf411}, !- Space Name
  Outdoors,                               !- Outside Boundary Condition
  ,                                       !- Outside Boundary Condition Object
  SunExposed,                             !- Sun Exposure
  WindExposed,                            !- Wind Exposure
  ,                                       !- View Factor to Ground
  ,                                       !- Number of Vertices
  -45.72, 19.812, 7.3152,                 !- X,Y,Z Vertex 1 {m}
  -32.004, 19.812, 7.3152,                !- X,Y,Z Vertex 2 {m}
  -32.004, 19.812, 4.8768,                !- X,Y,Z Vertex 3 {m}
  -45.72, 19.812, 4.8768;                 !- X,Y,Z Vertex 4 {m}

OS:Space,
  {c8e83079-7d48-44e4-8ba5-d97ca68d03cd}, !- Handle
  Space 4 - 2,                            !- Name
  ,                                       !- Space Type Name
  ,                                       !- Default Construction Set Name
  ,                                       !- Default Schedule Set Name
  ,                                       !- Direction of Relative North {deg}
  ,                                       !- X Origin {m}
  ,                                       !- Y Origin {m}
  ,                                       !- Z Origin {m}
  {8d3b8754-e002-4ece-b668-5848e460b73c}, !- Building Story Name
  {bd57dbe3-f388-41eb-a93d-ff21509ecac6}, !- Thermal Zone Name
  ,                                       !- Part of Total Floor Area
  ,                                       !- Design Specification Outdoor Air Object Name
  ;                                       !- Building Unit Name

OS:Surface,
  {000bc48e-79d0-4e22-96a0-b0de8ddbe4ae}, !- Handle
  Face 48,                                !- Name
  Floor,                                  !- Surface Type
  ,                                       !- Construction Name
  {c8e83079-7d48-44e4-8ba5-d97ca68d03cd}, !- Space Name
  Surface,                                !- Outside Boundary Condition
  {9c8347d6-757d-4ba2-8d12-3e18b2acc4ee}, !- Outside Boundary Condition Object
  NoSun,                                  !- Sun Exposure
  NoWind,                                 !- Wind Exposure
  ,                                       !- View Factor to Ground
  ,                                       !- Number of Vertices
  -15.24, 19.812, 7.3152,                 !- X,Y,Z Vertex 1 {m}
  -15.24, 1.524, 7.3152,                  !- X,Y,Z Vertex 2 {m}
  -32.004, 1.524, 7.3152,                 !- X,Y,Z Vertex 3 {m}
  -32.004, 19.812, 7.3152;                !- X,Y,Z Vertex 4 {m}

OS:Surface,
  {42afe76f-e562-4ca0-8ffb-2e8f5ddfa547}, !- Handle
  Face 49,                                !- Name
  RoofCeiling,                            !- Surface Type
  ,                                       !- Construction Name
  {c8e83079-7d48-44e4-8ba5-d97ca68d03cd}, !- Space Name
  Outdoors,                               !- Outside Boundary Condition
  ,                                       !- Outside Boundary Condition Object
  SunExposed,                             !- Sun Exposure
  WindExposed,                            !- Wind Exposure
  ,                                       !- View Factor to Ground
  ,                                       !- Number of Vertices
  -32.004, 19.812, 9.7536,                !- X,Y,Z Vertex 1 {m}
  -32.004, 1.524, 9.7536,                 !- X,Y,Z Vertex 2 {m}
  -15.24, 1.524, 9.7536,                  !- X,Y,Z Vertex 3 {m}
  -15.24, 19.812, 9.7536;                 !- X,Y,Z Vertex 4 {m}

OS:Surface,
  {7098faaa-0284-4134-997b-86b7d0ab08a5}, !- Handle
  Face 50,                                !- Name
  Wall,                                   !- Surface Type
  ,                                       !- Construction Name
  {c8e83079-7d48-44e4-8ba5-d97ca68d03cd}, !- Space Name
  Outdoors,                               !- Outside Boundary Condition
  ,                                       !- Outside Boundary Condition Object
  SunExposed,                             !- Sun Exposure
  WindExposed,                            !- Wind Exposure
  ,                                       !- View Factor to Ground
  ,                                       !- Number of Vertices
  -15.24, 19.812, 9.7536,                 !- X,Y,Z Vertex 1 {m}
  -15.24, 1.524, 9.7536,                  !- X,Y,Z Vertex 2 {m}
  -15.24, 1.524, 7.3152,                  !- X,Y,Z Vertex 3 {m}
  -15.24, 19.812, 7.3152;                 !- X,Y,Z Vertex 4 {m}

OS:Surface,
  {361a64e7-2a41-45b5-9df2-1e5bb108c459}, !- Handle
  Face 51,                                !- Name