
OS:Version,
  {6944647c-76a0-47ab-a4bb-0e117301d91f}, !- Handle
  2.7.0;                                  !- Version Identifier

OS:ScheduleTypeLimits,
  {115aba64-18e9-477b-9f56-bc49f71a3d65}, !- Handle
  ActivityLevel,                          !- Name
  0,                                      !- Lower Limit Value
  ,                                       !- Upper Limit Value
  Continuous,                             !- Numeric Type
  ActivityLevel;                          !- Unit Type

OS:ThermostatSetpoint:DualSetpoint,
  {4c10e941-222f-4ce6-97c2-167d512784bb}, !- Handle
  189.1-2009 - Office - BreakRoom - CZ1-3 Thermostat, !- Name
  {09614427-a80e-4def-b3c8-4569d9820c87}, !- Heating Setpoint Temperature Schedule Name
  {b0c1894d-c9fc-4037-9dd0-81db953b7a2a}; !- Cooling Setpoint Temperature Schedule Name

OS:Schedule:Ruleset,
  {09614427-a80e-4def-b3c8-4569d9820c87}, ! Handle
  Medium Office HtgSetp,                  ! Name
  {fe175268-292a-4433-a896-b1196b2fabee}, ! Schedule Type Limits Name
  {8882803d-5d69-4a07-a318-9917a000abb6}, ! Default Day Schedule Name
  {d8e08bcc-fb61-400d-8fcc-652931ec5576}, ! Summer Design Day Schedule Name
  {e7c96e76-f302-4674-8a2a-3dc7a341b8cb}; ! Winter Design Day Schedule Name

OS:ScheduleTypeLimits,
  {fe175268-292a-4433-a896-b1196b2fabee}, !- Handle
  Temperature 36,                         !- Name
  ,                                       !- Lower Limit Value
  ,                                       !- Upper Limit Value
  Continuous,                             !- Numeric Type
  Temperature;                            !- Unit Type

OS:Schedule:Day,
  {8882803d-5d69-4a07-a318-9917a000abb6}, ! Handle
  Medium Office HtgSetp Default Schedule, ! Name
  {fe175268-292a-4433-a896-b1196b2fabee}, ! Schedule Type Limits Name
  ,                                       ! Interpolate to Timestep
  6,                                      !- Hour 1
  0,                                      !- Minute 1
  15.6,                                   !- Value Until Time 1
  22,                                     !- Hour 2
  0,                                      !- Minute 2
  21,                                     !- Value Until Time 2
  24,                                     !- Hour 3
  0,                                      !- Minute 3
  15.6;                                   !- Value Until Time 3

OS:Schedule:Day,
  {d8e08bcc-fb61-400d-8fcc-652931ec5576}, ! Handle
  Medium Office HtgSetp Summer Design Day, ! Name
  {fe175268-292a-4433-a896-b1196b2fabee}, ! Schedule Type Limits Name
  ,                                       ! Interpolate to Timestep
  24,                                     ! Hour 1
  0,                                      ! Minute 1
  15.6;                                   ! Value Until Time 1

OS:Schedule:Day,
  {e7c96e76-f302-4674-8a2a-3dc7a341b8cb}, ! Handle
  Medium Office HtgSetp Winter Design Day, ! Name
  {fe175268-292a-4433-a896-b1196b2fabee}, ! Schedule Type Limits Name
  ,                                       ! Interpolate to Timestep
  24,                                     ! Hour 1
  0,                                      ! Minute 1
  21;                                     ! Value Until Time 1

OS:Schedule:Rule,
  {c7f812fa-7446-40ee-b68b-b3a8b51b12e6}, ! Handle
  Medium Office HtgSetp Rule 1,           ! Name
  {09614427-a80e-4def-b3c8-4569d9820c87}, ! Schedule Ruleset Name
  0,                                      ! Rule Order
  {42a8882f-6fd8-4828-a5b5-47a81c1a7b4b}, ! Day Schedule Name
  Yes,                                    ! Apply Sunday
  No,                                     ! Apply Monday
  No,                                     ! Apply Tuesday
  No,                                     ! Apply Wednesday
  No,                                     ! Apply Thursday
  No,                                     ! Apply Friday
  No,                                     ! Apply Saturday
  ,                                       ! Apply Holiday
  DateRange,                              ! Date Specification Type
  1,                                      ! Start Month
  1,                                      ! Start Day
  12,                                     ! End Month
  31;                                     ! End Day

OS:Schedule:Day,
  {42a8882f-6fd8-4828-a5b5-47a81c1a7b4b}, ! Handle
  Medium Office HtgSetp Rule 1 Day Schedule, ! Name
  {fe175268-292a-4433-a896-b1196b2fabee}, ! Schedule Type Limits Name
  ,                                       ! Interpolate to Timestep
  24,                                     ! Hour 1
  0,                                      ! Minute 1
  15.6;                                   ! Value Until Time 1

OS:Schedule:Rule,
  {2e1dc3e8-d10c-4d93-ae1c-b45ed550e975}, ! Handle
  Medium Office HtgSetp Rule 2,           ! Name
  {09614427-a80e-4def-b3c8-4569d9820c87}, ! Schedule Ruleset Name
  1,                                      ! Rule Order
  {aac68dcf-cce4-43fa-939c-a27379cb5e6d}, ! Day Schedule Name
  No,                                     ! Apply Sunday
  No,                                     ! Apply Monday
  No,                                     ! Apply Tuesday
  No,                                     ! Apply Wednesday
  No,                                     ! Apply Thursday
  No,                                     ! Apply Friday
  Yes,                                    ! Apply Saturday
  ,                                       ! Apply Holiday
  DateRange,                              ! Date Specification Type
  1,                                      ! Start Month
  1,                                      ! Start Day
  12,                                     ! End Month
  31;                                     ! End Day

OS:Schedule:Day,
  {aac68dcf-cce4-43fa-939c-a27379cb5e6d}, ! Handle
  Medium Office HtgSetp Rule 2 Day Schedule, ! Name
  {fe175268-292a-4433-a896-b1196b2fabee}, ! Schedule Type Limits Name
  ,                                       ! Interpolate to Timestep
  6,                                      ! Hour 1
  0,                                      ! Minute 1
  15.6,                                   ! Value Until Time 1
  18,                                     ! Hour 2
  0,                                      ! Minute 2
  21,                                     ! Value Until Time 2
  24,                                     ! Hour 3
  0,                                      ! Minute 3
  15.6;                                   ! Value Until Time 3

OS:Schedule:Ruleset,
  {b0c1894d-c9fc-4037-9dd0-81db953b7a2a}, ! Handle
  Medium Office ClgSetp,                  ! Name
  {39bcb3ad-c249-4e1e-963c-be23295372e4}, ! Schedule Type Limits Name
  {b2d005f8-5eb3-447e-8697-9b31aaa3a2db}, ! Default Day Schedule Name
  {a3605db2-8181-496b-8473-1aa0a642a54f}, ! Summer Design Day Schedule Name
  {e7eb3567-d62b-4ef1-bd1a-6e8dbc046b21}; ! Winter Design Day Schedule Name

OS:ScheduleTypeLimits,
  {39bcb3ad-c249-4e1e-963c-be23295372e4}, !- Handle
  Temperature 37,                         !- Name
  ,                                       !- Lower Limit Value
  ,                                       !- Upper Limit Value
  Continuous,                             !- Numeric Type
  Temperature;                            !- Unit Type

OS:Schedule:Day,
  {b2d005f8-5eb3-447e-8697-9b31aaa3a2db}, ! Handle
  Medium Office ClgSetp Default Schedule, ! Name
  {39bcb3ad-c249-4e1e-963c-be23295372e4}, ! Schedule Type Limits Name
  ,                                       ! Interpolate to Timestep
  6,                                      !- Hour 1
  0,                                      !- Minute 1
  26.7,                                   !- Value Until Time 1
  22,                                     !- Hour 2
  0,                                      !- Minute 2
  24,                                     !- Value Until Time 2
  24,                                     !- Hour 3
  0,                                      !- Minute 3
  26.7;                                   !- Value Until Time 3

OS:Schedule:Day,
  {a3605db2-8181-496b-8473-1aa0a642a54f}, ! Handle
  Medium Office ClgSetp Summer Design Day, ! Name
  {39bcb3ad-c249-4e1e-963c-be23295372e4}, ! Schedule Type Limits Name
  ,                                       ! Interpolate to Timestep
  6,                                      ! Hour 1
  0,                                      ! Minute 1
  26.699999999999999,                     ! Value Until Time 1
  22,                                     ! Hour 2
  0,                                      ! Minute 2
  24,                                     ! Value Until Time 2
  24,                                     ! Hour 3
  0,                                      ! Minute 3
  26.699999999999999;                     ! Value Until Time 3

OS:Schedule:Day,
  {e7eb3567-d62b-4ef1-bd1a-6e8dbc046b21}, ! Handle
  Medium Office ClgSetp Winter Design Day, ! Name
  {39bcb3ad-c249-4e1e-963c-be23295372e4}, ! Schedule Type Limits Name
  ,                                       ! Interpolate to Timestep
  24,                                     ! Hour 1
  0,                                      ! Minute 1
  26.699999999999999;                     ! Value Until Time 1

OS:Schedule:Rule,
  {0d632a2f-7030-458d-a605-1c8b22675112}, ! Handle
  Medium Office ClgSetp Rule 1,           ! Name
  {b0c1894d-c9fc-4037-9dd0-81db953b7a2a}, ! Schedule Ruleset Name
  0,                                      ! Rule Order
  {ef8f110c-4e65-4bff-a09f-b7a26ac7ead7}, ! Day Schedule Name
  Yes,                                    ! Apply Sunday
  No,                                     ! Apply Monday
  No,                                     ! Apply Tuesday
  No,                                     ! Apply Wednesday
  No,                                     ! Apply Thursday
  No,                                     ! Apply Friday
  No,                                     ! Apply Saturday
  ,                                       ! Apply Holiday
  DateRange,                              ! Date Specification Type
  1,                                      ! Start Month
  1,                                      ! Start Day
  12,                                     ! End Month
  31;                                     ! End Day

OS:Schedule:Day,
  {ef8f110c-4e65-4bff-a09f-b7a26ac7ead7}, ! Handle
  Medium Office ClgSetp Rule 1 Day Schedule, ! Name
  {39bcb3ad-c249-4e1e-963c-be23295372e4}, ! Schedule Type Limits Name
  ,                                       ! Interpolate to Timestep
  24,                                     ! Hour 1
  0,                                      ! Minute 1
  26.699999999999999;                     ! Value Until Time 1

OS:Schedule:Rule,
  {64435df8-d2ce-49d3-ab10-d80ef7c9dc79}, ! Handle
  Medium Office ClgSetp Rule 2,           ! Name
  {b0c1894d-c9fc-4037-9dd0-81db953b7a2a}, ! Schedule Ruleset Name
  1,                                      ! Rule Order
  {3103b702-d5fe-489f-a4a3-03c0cdaefd36}, ! Day Schedule Name
  No,                                     ! Apply Sunday
  No,                                     ! Apply Monday
  No,                                     ! Apply Tuesday
  No,                                     ! Apply Wednesday
  No,                                     ! Apply Thursday
  No,                                     ! Apply Friday
  Yes,                                    ! Apply Saturday
  ,                                       ! Apply Holiday
  DateRange,                              ! Date Specification Type
  1,                                      ! Start Month
  1,                                      ! Start Day
  12,                                     ! End Month
  31;                                     ! End Day

OS:Schedule:Day,
  {3103b702-d5fe-489f-a4a3-03c0cdaefd36}, ! Handle
  Medium Office ClgSetp Rule 2 Day Schedule, ! Name
  {39bcb3ad-c249-4e1e-963c-be23295372e4}, ! Schedule Type Limits Name
  ,                                       ! Interpolate to Timestep
  6,                                      ! Hour 1
  0,                                      ! Minute 1
  26.699999999999999,                     ! Value Until Time 1
  18,                                     ! Hour 2
  0,                                      ! Minute 2
  24,                                     ! Value Until Time 2
  24,                                     ! Hour 3
  0,                                      ! Minute 3
  26.699999999999999;                     ! Value Until Time 3

OS:ThermostatSetpoint:DualSetpoint,
  {9e972440-d6e2-4d12-af61-30e49f26d1f6}, !- Handle
  189.1-2009 - Office - ClosedOffice - CZ1-3 Thermostat, !- Name
  {09614427-a80e-4def-b3c8-4569d9820c87}, !- Heating Setpoint Temperature Schedule Name
  {b0c1894d-c9fc-4037-9dd0-81db953b7a2a}; !- Cooling Setpoint Temperature Schedule Name

OS:ThermostatSetpoint:DualSetpoint,
  {7691aa3c-0f51-4b50-af2b-5cfffd865bd1}, !- Handle
  189.1-2009 - Office - Conference - CZ1-3 Thermostat, !- Name
  {09614427-a80e-4def-b3c8-4569d9820c87}, !- Heating Setpoint Temperature Schedule Name
  {b0c1894d-c9fc-4037-9dd0-81db953b7a2a}; !- Cooling Setpoint Temperature Schedule Name

OS:ThermostatSetpoint:DualSetpoint,
  {f1f0200e-b39d-4793-8cb4-2c307199de15}, !- Handle
  189.1-2009 - Office - Corridor - CZ1-3 Thermostat, !- Name
  {09614427-a80e-4def-b3c8-4569d9820c87}, !- Heating Setpoint Temperature Schedule Name
  {b0c1894d-c9fc-4037-9dd0-81db953b7a2a}; !- Cooling Setpoint Temperature Schedule Name

OS:ThermostatSetpoint:DualSetpoint,
  {959d0b30-4f5d-43cc-a32d-27b3efb6d237}, !- Handle
  189.1-2009 - Office - Elec/MechRoom - CZ1-3 Thermostat, !- Name
  {09614427-a80e-4def-b3c8-4569d9820c87}, !- Heating Setpoint Temperature Schedule Name
  {b0c1894d-c9fc-4037-9dd0-81db953b7a2a}; !- Cooling Setpoint Temperature Schedule Name

OS:ThermostatSetpoint:DualSetpoint,
  {c45f9b47-32fa-429c-9130-e959ffd40036}, !- Handle
  189.1-2009 - Office - IT_Room - CZ1-3 Thermostat, !- Name
  {09614427-a80e-4def-b3c8-4569d9820c87}, !- Heating Setpoint Temperature Schedule Name
  {b0c1894d-c9fc-4037-9dd0-81db953b7a2a}; !- Cooling Setpoint Temperature Schedule Name

OS:ThermostatSetpoint:DualSetpoint,
  {d3694f32-dbe7-4f34-8a96-56cd4db5d3ce}, !- Handle
  189.1-2009 - Office - Lobby - CZ1-3 Thermostat, !- Name
  {09614427-a80e-4def-b3c8-4569d9820c87}, !- Heating Setpoint Temperature Schedule Name
  {b0c1894d-c9fc-4037-9dd0-81db953b7a2a}; !- Cooling Setpoint Temperature Schedule Name

OS:ThermostatSetpoint:DualSetpoint,
  {fe91686e-dd84-4b38-b5b8-54dfcf8560ce}, !- Handle
  189.1-2009 - Office - OpenOffice - CZ1-3 Thermostat, !- Name
  {09614427-a80e-4def-b3c8-4569d9820c87}, !- Heating Setpoint Temperature Schedule Name
  {b0c1894d-c9fc-4037-9dd0-81db953b7a2a}; !- Cooling Setpoint Temperature Schedule Name

OS:Building,
  {161a51f0-9700-4aa1-8ba8-f2513d0eecae}, !- Handle
  90.1-2013-SmallOffice-ASHRAE 169-2006-2A PRM baseline created: 2018-11-05 12:26:00 -0700, !- Name
  ,                                       !- Building Sector Type
  ,                                       !- North Axis {deg}
  ,                                       !- Nominal Floor to Floor Height {m}
  ,                                       !- Space Type Name
  {34328a28-e42f-4efd-97ba-1c6aab35bd59}, !- Default Construction Set Name
  ,                                       !- Default Schedule Set Name
  ,                                       !- Standards Number of Stories
  ,                                       !- Standards Number of Above Ground Stories
  ,                                       !- Standards Template
  Office,                                 !- Standards Building Type
  ,                                       !- Standards Number of Living Units
  ,                                       !- Relocatable
  ;                                       !- Nominal Floor to Ceiling Height {m}

OS:ThermostatSetpoint:DualSetpoint,
  {6ee3f455-6c41-4bb4-b9a1-f1f1b61abb75}, !- Handle
  189.1-2009 - Office - PrintRoom - CZ1-3 Thermostat, !- Name
  {09614427-a80e-4def-b3c8-4569d9820c87}, !- Heating Setpoint Temperature Schedule Name
  {b0c1894d-c9fc-4037-9dd0-81db953b7a2a}; !- Cooling Setpoint Temperature Schedule Name

OS:ThermostatSetpoint:DualSetpoint,
  {5d77807c-6525-4ff5-96b0-3bae48c5bf5e}, !- Handle
  189.1-2009 - Office - Restroom - CZ1-3 Thermostat, !- Name
  {09614427-a80e-4def-b3c8-4569d9820c87}, !- Heating Setpoint Temperature Schedule Name
  {b0c1894d-c9fc-4037-9dd0-81db953b7a2a}; !- Cooling Setpoint Temperature Schedule Name

OS:ThermostatSetpoint:DualSetpoint,
  {e34a4858-8ca9-4b53-8502-c5073f2911c3}, !- Handle
  189.1-2009 - Office - Stair - CZ1-3 Thermostat, !- Name
  {09614427-a80e-4def-b3c8-4569d9820c87}, !- Heating Setpoint Temperature Schedule Name
  {b0c1894d-c9fc-4037-9dd0-81db953b7a2a}; !- Cooling Setpoint Temperature Schedule Name

OS:ThermostatSetpoint:DualSetpoint,
  {7666b674-d1ef-4103-b26d-0c8dbbbfc8b7}, !- Handle
  189.1-2009 - Office - Storage - CZ1-3 Thermostat, !- Name
  {09614427-a80e-4def-b3c8-4569d9820c87}, !- Heating Setpoint Temperature Schedule Name
  {b0c1894d-c9fc-4037-9dd0-81db953b7a2a}; !- Cooling Setpoint Temperature Schedule Name

OS:ThermostatSetpoint:DualSetpoint,
  {0d80e673-9242-4a06-b05d-982eeaeca477}, !- Handle
  189.1-2009 - Office - Vending - CZ1-3 Thermostat, !- Name
  {09614427-a80e-4def-b3c8-4569d9820c87}, !- Heating Setpoint Temperature Schedule Name
  {b0c1894d-c9fc-4037-9dd0-81db953b7a2a}; !- Cooling Setpoint Temperature Schedule Name

OS:ScheduleTypeLimits,
  {c50de33e-2a31-403b-929e-8d1c42a993ef}, !- Handle
  Fractional,                             !- Name
  0,                                      !- Lower Limit Value
  1,                                      !- Upper Limit Value
  Continuous;                             !- Numeric Type

OS:ThermostatSetpoint:DualSetpoint,
  {2e0d8e87-f663-4cc4-95e5-e3450e3ad2f7}, !- Handle
  189.1-2009 - Office - WholeBuilding - Lg Office - CZ1-3 Thermostat, !- Name
  {2122cc4e-7e1b-44c0-9c3f-9e9e201eccca}, !- Heating Setpoint Temperature Schedule Name
  {28f74a9b-29da-4e35-bd76-56b9a3c9360c}; !- Cooling Setpoint Temperature Schedule Name

OS:Schedule:Ruleset,
  {2122cc4e-7e1b-44c0-9c3f-9e9e201eccca}, ! Handle
  Large Office HtgSetp,                   ! Name
  {a9dadb87-2284-4037-ada9-d8ba03d45fc3}, ! Schedule Type Limits Name
  {f2084031-9ed1-4770-8d0d-6a78ac4a504b}, ! Default Day Schedule Name
  {7bafb6f6-149a-4862-a38f-50ebac27286a}, ! Summer Design Day Schedule Name
  {a3fbd73b-06c3-4bf6-a249-05d87cebdfc6}; ! Winter Design Day Schedule Name

OS:ScheduleTypeLimits,
  {a9dadb87-2284-4037-ada9-d8ba03d45fc3}, !- Handle
  Temperature 3,                          !- Name
  ,                                       !- Lower Limit Value
  ,                                       !- Upper Limit Value
  Continuous,                             !- Numeric Type
  Temperature;                            !- Unit Type

OS:Schedule:Day,
  {f2084031-9ed1-4770-8d0d-6a78ac4a504b}, ! Handle
  Large Office HtgSetp Default Schedule,  ! Name
  {a9dadb87-2284-4037-ada9-d8ba03d45fc3}, ! Schedule Type Limits Name
  ,                                       ! Interpolate to Timestep
  6,                                      !- Hour 1
  0,                                      !- Minute 1
  15.6,                                   !- Value Until Time 1
  22,                                     !- Hour 2
  0,                                      !- Minute 2
  21,                                     !- Value Until Time 2
  24,                                     !- Hour 3
  0,                                      !- Minute 3
  15.6;                                   !- Value Until Time 3

OS:Schedule:Day,
  {7bafb6f6-149a-4862-a38f-50ebac27286a}, ! Handle
  Large Office HtgSetp Summer Design Day, ! Name
  {a9dadb87-2284-4037-ada9-d8ba03d45fc3}, ! Schedule Type Limits Name
  ,                                       ! Interpolate to Timestep
  24,                                     ! Hour 1
  0,                                      ! Minute 1
  15.6;                                   ! Value Until Time 1

OS:Schedule:Day,
  {a3fbd73b-06c3-4bf6-a249-05d87cebdfc6}, ! Handle
  Large Office HtgSetp Winter Design Day, ! Name
  {a9dadb87-2284-4037-ada9-d8ba03d45fc3}, ! Schedule Type Limits Name
  ,                                       ! Interpolate to Timestep
  24,                                     ! Hour 1
  0,                                      ! Minute 1
  21;                                     ! Value Until Time 1

OS:Schedule:Rule,
  {3dec2ebc-3be0-4809-ab92-aba518f7243a}, ! Handle
  Large Office HtgSetp Rule 1,            ! Name
  {2122cc4e-7e1b-44c0-9c3f-9e9e201eccca}, ! Schedule Ruleset Name
  0,                                      ! Rule Order
  {6eec3602-ae5e-4520-9022-42f6eb158f11}, ! Day Schedule Name
  Yes,                                    ! Apply Sunday
  No,                                     ! Apply Monday
  No,                                     ! Apply Tuesday
  No,                                     ! Apply Wednesday
  No,                                     ! Apply Thursday
  No,                                     ! Apply Friday
  No,                                     ! Apply Saturday
  ,                                       ! Apply Holiday
  DateRange,                              ! Date Specification Type
  1,                                      ! Start Month
  1,                                      ! Start Day
  12,                                     ! End Month
  31;                                     ! End Day

OS:Schedule:Day,
  {6eec3602-ae5e-4520-9022-42f6eb158f11}, ! Handle
  Large Office HtgSetp Rule 1 Day Schedule, ! Name
  {a9dadb87-2284-4037-ada9-d8ba03d45fc3}, ! Schedule Type Limits Name
  ,                                       ! Interpolate to Timestep
  24,                                     ! Hour 1
  0,                                      ! Minute 1
  15.6;                                   ! Value Until Time 1

OS:Schedule:Rule,
  {d0fd0485-8d3a-4d93-b472-c2c055f12d8f}, ! Handle
  Large Office HtgSetp Rule 2,            ! Name
  {2122cc4e-7e1b-44c0-9c3f-9e9e201eccca}, ! Schedule Ruleset Name
  1,                                      ! Rule Order
  {855ab926-166d-457e-bee0-48035528728b}, ! Day Schedule Name
  No,                                     ! Apply Sunday
  No,                                     ! Apply Monday
  No,                                     ! Apply Tuesday
  No,                                     ! Apply Wednesday
  No,                                     ! Apply Thursday
  No,                                     ! Apply Friday
  Yes,                                    ! Apply Saturday
  ,                                       ! Apply Holiday
  DateRange,                              ! Date Specification Type
  1,                                      ! Start Month
  1,                                      ! Start Day
  12,                                     ! End Month
  31;                                     ! End Day

OS:Schedule:Day,
  {855ab926-166d-457e-bee0-48035528728b}, ! Handle
  Large Office HtgSetp Rule 2 Day Schedule, ! Name
  {a9dadb87-2284-4037-ada9-d8ba03d45fc3}, ! Schedule Type Limits Name
  ,                                       ! Interpolate to Timestep
  6,                                      ! Hour 1
  0,                                      ! Minute 1
  15.6,                                   ! Value Until Time 1
  18,                                     ! Hour 2
  0,                                      ! Minute 2
  21,                                     ! Value Until Time 2
  24,                                     ! Hour 3
  0,                                      ! Minute 3
  15.6;                                   ! Value Until Time 3

OS:Schedule:Ruleset,
  {28f74a9b-29da-4e35-bd76-56b9a3c9360c}, ! Handle
  Large Office ClgSetp,                   ! Name
  {41c7ee57-bfc4-48e2-9eb9-df0001ab88f0}, ! Schedule Type Limits Name
  {5eec5b53-578e-4e6d-bfd9-3ab760d8ce47}, ! Default Day Schedule Name
  {595d5a37-9ee2-40c6-8390-a264a70b9bf5}, ! Summer Design Day Schedule Name
  {bf709691-6dea-47a8-9d7f-a07245ece8ec}; ! Winter Design Day Schedule Name

OS:ScheduleTypeLimits,
  {41c7ee57-bfc4-48e2-9eb9-df0001ab88f0}, !- Handle
  Temperature 5,                          !- Name
  ,                                       !- Lower Limit Value
  ,                                       !- Upper Limit Value
  Continuous,                             !- Numeric Type
  Temperature;                            !- Unit Type

OS:Schedule:Day,
  {5eec5b53-578e-4e6d-bfd9-3ab760d8ce47}, ! Handle
  Large Office ClgSetp Default Schedule,  ! Name
  {41c7ee57-bfc4-48e2-9eb9-df0001ab88f0}, ! Schedule Type Limits Name
  ,                                       ! Interpolate to Timestep
  6,                                      !- Hour 1
  0,                                      !- Minute 1
  26.7,                                   !- Value Until Time 1
  22,                                     !- Hour 2
  0,                                      !- Minute 2
  24,                                     !- Value Until Time 2
  24,                                     !- Hour 3
  0,                                      !- Minute 3
  26.7;                                   !- Value Until Time 3

OS:Schedule:Day,
  {595d5a37-9ee2-40c6-8390-a264a70b9bf5}, ! Handle
  Large Office ClgSetp Summer Design Day, ! Name
  {41c7ee57-bfc4-48e2-9eb9-df0001ab88f0}, ! Schedule Type Limits Name
  ,                                       ! Interpolate to Timestep
  6,                                      ! Hour 1
  0,                                      ! Minute 1
  26.699999999999999,                     ! Value Until Time 1
  22,                                     ! Hour 2
  0,                                      ! Minute 2
  24,                                     ! Value Until Time 2
  24,                                     ! Hour 3
  0,                                      ! Minute 3
  26.699999999999999;                     ! Value Until Time 3

OS:Schedule:Day,
  {bf709691-6dea-47a8-9d7f-a07245ece8ec}, ! Handle
  Large Office ClgSetp Winter Design Day, ! Name
  {41c7ee57-bfc4-48e2-9eb9-df0001ab88f0}, ! Schedule Type Limits Name
  ,                                       ! Interpolate to Timestep
  24,                                     ! Hour 1
  0,                                      ! Minute 1
  26.699999999999999;                     ! Value Until Time 1

OS:Schedule:Rule,
  {0c2aa966-89ef-414d-9cb8-7c5866667a68}, ! Handle
  Large Office ClgSetp Rule 1,            ! Name
  {28f74a9b-29da-4e35-bd76-56b9a3c9360c}, ! Schedule Ruleset Name
  0,                                      ! Rule Order
  {4eb7dda9-f704-4e80-b779-17f6a393f713}, ! Day Schedule Name
  Yes,                                    ! Apply Sunday
  No,                                     ! Apply Monday
  No,                                     ! Apply Tuesday
  No,                                     ! Apply Wednesday
  No,                                     ! Apply Thursday
  No,                                     ! Apply Friday
  No,                                     ! Apply Saturday
  ,                                       ! Apply Holiday
  DateRange,                              ! Date Specification Type
  1,                                      ! Start Month
  1,                                      ! Start Day
  12,                                     ! End Month
  31;                                     ! End Day

OS:Schedule:Day,
  {4eb7dda9-f704-4e80-b779-17f6a393f713}, ! Handle
  Large Office ClgSetp Rule 1 Day Schedule, ! Name
  {41c7ee57-bfc4-48e2-9eb9-df0001ab88f0}, ! Schedule Type Limits Name
  ,                                       ! Interpolate to Timestep
  24,                                     ! Hour 1
  0,                                      ! Minute 1
  26.699999999999999;                     ! Value Until Time 1

OS:Schedule:Rule,
  {bfc0394c-2ee2-4a76-b55b-94b145027791}, ! Handle
  Large Office ClgSetp Rule 2,            ! Name
  {28f74a9b-29da-4e35-bd76-56b9a3c9360c}, ! Schedule Ruleset Name
  1,                                      ! Rule Order
  {9616ff3f-9dda-4339-accb-413452c0303f}, ! Day Schedule Name
  No,                                     ! Apply Sunday
  No,                                     ! Apply Monday
  No,                                     ! Apply Tuesday
  No,                                     ! Apply Wednesday
  No,                                     ! Apply Thursday
  No,                                     ! Apply Friday
  Yes,                                    ! Apply Saturday
  ,                                       ! Apply Holiday
  DateRange,                              ! Date Specification Type
  1,                                      ! Start Month
  1,                                      ! Start Day
  12,                                     ! End Month
  31;                                     ! End Day

OS:Schedule:Day,
  {9616ff3f-9dda-4339-accb-413452c0303f}, ! Handle
  Large Office ClgSetp Rule 2 Day Schedule, ! Name
  {41c7ee57-bfc4-48e2-9eb9-df0001ab88f0}, ! Schedule Type Limits Name
  ,                                       ! Interpolate to Timestep
  6,                                      ! Hour 1
  0,                                      ! Minute 1
  26.699999999999999,                     ! Value Until Time 1
  18,                                     ! Hour 2
  0,                                      ! Minute 2
  24,                                     ! Value Until Time 2
  24,                                     ! Hour 3
  0,                                      ! Minute 3
  26.699999999999999;                     ! Value Until Time 3

OS:ThermostatSetpoint:DualSetpoint,
  {6f2426c5-ac93-4ed3-8290-6cba3d44eb04}, !- Handle