
OS:Version,
  {bfb88071-3736-4e42-b05b-63d7fc240b86}, !- Handle
  2.4.0;                                  !- Version Identifier

OS:ClimateZones,
  {8a3ac41c-57d4-48e4-a48e-1f232e262211}, !- Handle
  ,                                       !- Active Institution
  ,                                       !- Active Year
  ASHRAE,                                 !- Climate Zone Institution Name 1
  ANSI/ASHRAE Standard 169,               !- Climate Zone Document Name 1
  2006,                                   !- Climate Zone Document Year 1
  ,                                       !- Climate Zone Value 1
  CEC,                                    !- Climate Zone Institution Name 2
  California Climate Zone Descriptions,   !- Climate Zone Document Name 2
  1995,                                   !- Climate Zone Document Year 2
  ;                                       !- Climate Zone Value 2

OS:LifeCycleCost:Parameters,
  {1d4d0f18-e6dd-45c8-896c-f4f2a89e6ae5}, !- Handle
  FEMP,                                   !- Analysis Type
  ,                                       !- Discounting Convention
  ,                                       !- Inflation Approach
  ,                                       !- Real Discount Rate
  ,                                       !- Nominal Discount Rate
  ,                                       !- Inflation
  ,                                       !- Base Date Month
  ,                                       !- Base Date Year
  ,                                       !- Service Date Month
  ,                                       !- Service Date Year
  ,                                       !- Length of Study Period in Years
  ,                                       !- Tax Rate
  ,                                       !- Depreciation Method
  Yes;                                    !- Use NIST Fuel Escalation Rates

OS:YearDescription,
  {c1349a5a-d7e1-4ed9-8e5b-24480649c25c}; !- Handle

OS:RadianceParameters,
  {8297fd56-36de-4b79-a182-b7636f4ae3e3}, !- Handle
  1,                                      !- Accumulated Rays per Record
  0,                                      !- Direct Threshold
  1,                                      !- Direct Certainty
  1,                                      !- Direct Jitter
  1,                                      !- Direct Pretest
  6,                                      !- Ambient Bounces VMX
  2,                                      !- Ambient Bounces DMX
  4050,                                   !- Ambient Divisions VMX
  512,                                    !- Ambient Divisions DMX
  256,                                    !- Ambient Supersamples
  0.001,                                  !- Limit Weight VMX
  0.001,                                  !- Limit Weight DMX
  500,                                    !- Klems Sampling Density
  146;                                    !- Sky Discretization Resolution

OS:SimulationControl,
  {7c57f4fc-548f-44e7-a438-1feca6a75629}; !- Handle

OS:Sizing:Parameters,
  {ee365675-827e-489e-9a24-0f596988dec4}, !- Handle
  1.25,                                   !- Heating Sizing Factor
  1.15;                                   !- Cooling Sizing Factor

OS:ProgramControl,
  {8a7b938e-cdcb-40af-82b1-79c267c36bae}; !- Handle

OS:Timestep,
  {31824a36-2f0f-4919-a534-cdb00e20d2e0}, !- Handle
  6;                                      !- Number of Timesteps per Hour

OS:OutputControl:ReportingTolerances,
  {275082a5-6cfd-4756-972e-8810ab253e29}; !- Handle

OS:ConvergenceLimits,
  {fcca1605-8471-4f2f-a485-a59582311771}; !- Handle

OS:ShadowCalculation,
  {d875de65-75c7-4d9d-883e-07bd79421b67}, !- Handle
  7,                                      !- Calculation Frequency
  15000;                                  !- Maximum Figures in Shadow Overlap Calculations

OS:SurfaceConvectionAlgorithm:Inside,
  {5add9a33-b760-4e82-a0f9-3ae0e369b9c4}, !- Handle
  TARP;                                   !- Algorithm

OS:SurfaceConvectionAlgorithm:Outside,
  {0257be16-14fc-418e-bc73-178201ccc4ec}, !- Handle
  DOE-2;                                  !- Algorithm

OS:HeatBalanceAlgorithm,
  {5a22c4c4-a6a6-4769-b0a8-f79498f98a6d}, !- Handle
  ConductionTransferFunction,             !- Algorithm
  200;                                    !- Surface Temperature Upper Limit {C}

OS:ZoneAirHeatBalanceAlgorithm,
  {24c912f8-6f7f-4792-8ea0-a8d47b3c41a1}, !- Handle
  AnalyticalSolution;                     !- Algorithm

OS:ZoneAirContaminantBalance,
  {07e7d420-4b9b-4760-8a70-01b36aa6074f}; !- Handle

OS:ZoneCapacitanceMultiplier:ResearchSpecial,
  {91056672-db13-4057-9cb7-7ac44d24bfc5}, !- Handle
  ,                                       !- Temperature Capacity Multiplier
  ,                                       !- Humidity Capacity Multiplier
  ;                                       !- Carbon Dioxide Capacity Multiplier

OS:RunPeriod,
  {17c33f47-c9b9-463a-84bc-12596f349148}, !- Handle
  Run Period 1,                           !- Name
  1,                                      !- Begin Month
  1,                                      !- Begin Day of Month
  12,                                     !- End Month
  31,                                     !- End Day of Month
  ,                                       !- Use Weather File Holidays and Special Days
  ,                                       !- Use Weather File Daylight Saving Period
  ,                                       !- Apply Weekend Holiday Rule
  ,                                       !- Use Weather File Rain Indicators
  ,                                       !- Use Weather File Snow Indicators
  ;                                       !- Number of Times Runperiod to be Repeated

OS:Building,
  {e0ce3521-4e53-4eca-8017-2f1c8dec2b50}, !- Handle
  Building 1,                             !- Name
  ,                                       !- Building Sector Type
  ,                                       !- North Axis {deg}
  ,                                       !- Nominal Floor to Floor Height {m}
  {ac513d4d-8801-4c4f-9cdd-b70a96059894}, !- Space Type Name
  {a2e85d50-4a4b-433b-9dd3-e7a151e6df07}, !- Default Construction Set Name
  {f2a0d9c6-ed08-45ad-8f5c-ee088d8ec27c}, !- Default Schedule Set Name
  ,                                       !- Standards Number of Stories
  ,                                       !- Standards Number of Above Ground Stories
  ,                                       !- Standards Building Type
  ,                                       !- Standards Number of Living Units
  ,                                       !- Relocatable
  ;                                       !- Nominal Floor to Ceiling Height {m}

OS:Facility,
  {b6e6be84-f909-42a5-9deb-ef70c0296721}; !- Handle

OS:Site,
  {f38b0e3c-04e1-4822-940e-9b46c436222c}, !- Handle
  Site 1,                                 !- Name
  ,                                       !- Latitude {deg}
  ,                                       !- Longitude {deg}
  ,                                       !- Time Zone {hr}
  ,                                       !- Elevation {m}
  ;                                       !- Terrain

OS:BuildingStory,
  {c1b51687-9ee6-4472-abab-a7a980f59cef}, !- Handle
  Building Story 1,                       !- Name
  0,                                      !- Nominal Z Coordinate {m}
  2.7432,                                 !- Nominal Floor to Floor Height {m}
  ,                                       !- Default Construction Set Name
  ,                                       !- Default Schedule Set Name
  {ca4e32c7-4fd8-41b2-954a-9bdb44d86dee}, !- Group Rendering Name
  ;                                       !- Nominal Floor to Ceiling Height {m}

OS:Space,
  {291a8065-f1bc-49ac-a780-63e839809359}, !- Handle
  Space 101,                              !- Name
  {c1b16e52-5a06-44ec-b925-73249f3c4995}, !- Space Type Name
  ,                                       !- Default Construction Set Name
  ,                                       !- Default Schedule Set Name
  ,                                       !- Direction of Relative North {deg}
  0,                                      !- X Origin {m}
  15.113,                                 !- Y Origin {m}
  0,                                      !- Z Origin {m}
  {c1b51687-9ee6-4472-abab-a7a980f59cef}, !- Building Story Name
  {699e6d60-1755-459f-87de-ebefabf90e6f}, !- Thermal Zone Name
  ,                                       !- Part of Total Floor Area
  ,                                       !- Design Specification Outdoor Air Object Name
  ;                                       !- Building Unit Name

OS:Surface,
  {b32c1956-6112-4c66-910a-771d6ea6dacb}, !- Handle
  Surface 1,                              !- Name
  Floor,                                  !- Surface Type
  ,                                       !- Construction Name
  {291a8065-f1bc-49ac-a780-63e839809359}, !- Space Name
  Ground,                                 !- Outside Boundary Condition
  ,                                       !- Outside Boundary Condition Object
  NoSun,                                  !- Sun Exposure
  NoWind,                                 !- Wind Exposure
  ,                                       !- View Factor to Ground
  ,                                       !- Number of Vertices
  12.47775, 0, 0,                         !- X,Y,Z Vertex 1 {m}
  12.47775, -15.113, 0,                   !- X,Y,Z Vertex 2 {m}
  0, -15.113, 0,                          !- X,Y,Z Vertex 3 {m}
  0, 0, 0;                                !- X,Y,Z Vertex 4 {m}

OS:Surface,
  {1eb24300-8319-4859-9e80-c9a5fa756e93}, !- Handle
  Surface 2,                              !- Name
  Wall,                                   !- Surface Type
  ,                                       !- Construction Name
  {291a8065-f1bc-49ac-a780-63e839809359}, !- Space Name
  Surface,                                !- Outside Boundary Condition
  {a4d5e134-2c8b-4f53-9b58-290c6640c056}, !- Outside Boundary Condition Object
  NoSun,                                  !- Sun Exposure
  NoWind,                                 !- Wind Exposure
  ,                                       !- View Factor to Ground
  ,                                       !- Number of Vertices
  12.47775, 0, 2.7432,                    !- X,Y,Z Vertex 1 {m}
  12.47775, 0, 0,                         !- X,Y,Z Vertex 2 {m}
  0, 0, 0,                                !- X,Y,Z Vertex 3 {m}
  0, 0, 2.7432;                           !- X,Y,Z Vertex 4 {m}

OS:Surface,
  {6a4b3387-9c2c-4ba0-a68d-13542759ef88}, !- Handle
  Surface 3,                              !- Name
  Wall,                                   !- Surface Type
  ,                                       !- Construction Name
  {291a8065-f1bc-49ac-a780-63e839809359}, !- Space Name
  Surface,                                !- Outside Boundary Condition
  {4195555d-86b5-43db-adda-1e851b0bf3b7}, !- Outside Boundary Condition Object
  NoSun,                                  !- Sun Exposure
  NoWind,                                 !- Wind Exposure
  ,                                       !- View Factor to Ground
  ,                                       !- Number of Vertices
  12.47775, -15.113, 2.7432,              !- X,Y,Z Vertex 1 {m}
  12.47775, -15.113, 0,                   !- X,Y,Z Vertex 2 {m}
  12.47775, 0, 0,                         !- X,Y,Z Vertex 3 {m}
  12.47775, 0, 2.7432;                    !- X,Y,Z Vertex 4 {m}

OS:Surface,
  {a31b2aca-eee2-4664-a41d-20e597031fd0}, !- Handle
  Surface 4,                              !- Name
  Wall,                                   !- Surface Type
  ,                                       !- Construction Name
  {291a8065-f1bc-49ac-a780-63e839809359}, !- Space Name
  Outdoors,                               !- Outside Boundary Condition
  ,                                       !- Outside Boundary Condition Object
  SunExposed,                             !- Sun Exposure
  WindExposed,                            !- Wind Exposure
  ,                                       !- View Factor to Ground
  ,                                       !- Number of Vertices
  0, -15.113, 2.7432,                     !- X,Y,Z Vertex 1 {m}
  0, -15.113, 0,                          !- X,Y,Z Vertex 2 {m}
  12.47775, -15.113, 0,                   !- X,Y,Z Vertex 3 {m}
  12.47775, -15.113, 2.7432;              !- X,Y,Z Vertex 4 {m}

OS:Surface,
  {8d05f375-91be-493d-97d2-c4c5aa094df5}, !- Handle
  Surface 5,                              !- Name
  Wall,                                   !- Surface Type
  ,                                       !- Construction Name
  {291a8065-f1bc-49ac-a780-63e839809359}, !- Space Name
  Outdoors,                               !- Outside Boundary Condition
  ,                                       !- Outside Boundary Condition Object
  SunExposed,                             !- Sun Exposure
  WindExposed,                            !- Wind Exposure
  ,                                       !- View Factor to Ground
  ,                                       !- Number of Vertices
  0, 0, 2.7432,                           !- X,Y,Z Vertex 1 {m}
  0, 0, 0,                                !- X,Y,Z Vertex 2 {m}
  0, -15.113, 0,                          !- X,Y,Z Vertex 3 {m}
  0, -15.113, 2.7432;                     !- X,Y,Z Vertex 4 {m}

OS:Surface,
  {bf4fd6d4-24b6-4659-ac4a-b474f3d36a41}, !- Handle
  Surface 6,                              !- Name
  RoofCeiling,                            !- Surface Type
  ,                                       !- Construction Name
  {291a8065-f1bc-49ac-a780-63e839809359}, !- Space Name
  Surface,                                !- Outside Boundary Condition
  {feeb28f4-4c0c-491c-9a2c-d8750162a2d8}, !- Outside Boundary Condition Object
  NoSun,                                  !- Sun Exposure
  NoWind,                                 !- Wind Exposure
  ,                                       !- View Factor to Ground
  ,                                       !- Number of Vertices
  12.47775, -15.113, 2.7432,              !- X,Y,Z Vertex 1 {m}
  12.47775, 0, 2.7432,                    !- X,Y,Z Vertex 2 {m}
  0, 0, 2.7432,                           !- X,Y,Z Vertex 3 {m}
  0, -15.113, 2.7432;                     !- X,Y,Z Vertex 4 {m}

OS:Space,
  {a97b0463-1b81-42f0-9192-3174727b6168}, !- Handle
  Space 102,                              !- Name
  {c3929556-ccfc-4afe-99db-cb5a7f252dc7}, !- Space Type Name
  ,                                       !- Default Construction Set Name
  ,                                       !- Default Schedule Set Name
  ,                                       !- Direction of Relative North {deg}
  12.47775,                               !- X Origin {m}
  15.113,                                 !- Y Origin {m}
  0,                                      !- Z Origin {m}
  {c1b51687-9ee6-4472-abab-a7a980f59cef}, !- Building Story Name
  {347ce492-744f-4d8e-b2e9-ea6a75ef63c3}, !- Thermal Zone Name
  ,                                       !- Part of Total Floor Area
  ,                                       !- Design Specification Outdoor Air Object Name
  ;                                       !- Building Unit Name

OS:Surface,
  {66b578ac-5a43-4b50-b4f5-3df707480544}, !- Handle
  Surface 7,                              !- Name
  Floor,                                  !- Surface Type
  ,                                       !- Construction Name
  {a97b0463-1b81-42f0-9192-3174727b6168}, !- Space Name
  Ground,                                 !- Outside Boundary Condition
  ,                                       !- Outside Boundary Condition Object
  NoSun,                                  !- Sun Exposure
  NoWind,                                 !- Wind Exposure
  ,                                       !- View Factor to Ground
  ,                                       !- Number of Vertices
  12.47775, 0, 0,                         !- X,Y,Z Vertex 1 {m}
  12.47775, -15.113, 0,                   !- X,Y,Z Vertex 2 {m}
  0, -15.113, 0,                          !- X,Y,Z Vertex 3 {m}
  0, 0, 0;                                !- X,Y,Z Vertex 4 {m}

OS:Surface,
  {dc0c08fb-7756-459b-98d8-b472e191029b}, !- Handle
  Surface 8,                              !- Name
  Wall,                                   !- Surface Type
  ,                                       !- Construction Name
  {a97b0463-1b81-42f0-9192-3174727b6168}, !- Space Name
  Surface,                                !- Outside Boundary Condition
  {b2e8453c-68fb-4ab3-8f2c-6909c937bc6a}, !- Outside Boundary Condition Object
  NoSun,                                  !- Sun Exposure
  NoWind,                                 !- Wind Exposure
  ,                                       !- View Factor to Ground
  ,                                       !- Number of Vertices
  12.47775, 0, 2.7432,                    !- X,Y,Z Vertex 1 {m}
  12.47775, 0, 0,                         !- X,Y,Z Vertex 2 {m}
  0, 0, 0,                                !- X,Y,Z Vertex 3 {m}
  0, 0, 2.7432;                           !- X,Y,Z Vertex 4 {m}

OS:Surface,
  {40fea22e-a01c-4b24-bd3d-f03523969b12}, !- Handle
  Surface 9,                              !- Name
  Wall,                                   !- Surface Type
  ,                                       !- Construction Name
  {a97b0463-1b81-42f0-9192-3174727b6168}, !- Space Name
  Surface,                                !- Outside Boundary Condition
  {d35da6e9-c03f-43c8-9ab1-964406764aa8}, !- Outside Boundary Condition Object
  NoSun,                                  !- Sun Exposure
  NoWind,                                 !- Wind Exposure
  ,                                       !- View Factor to Ground
  ,                                       !- Number of Vertices
  12.47775, -15.113, 2.7432,              !- X,Y,Z Vertex 1 {m}
  12.47775, -15.113, 0,                   !- X,Y,Z Vertex 2 {m}
  12.47775, 0, 0,                         !- X,Y,Z Vertex 3 {m}
  12.47775, 0, 2.7432;                    !- X,Y,Z Vertex 4 {m}

OS:Surface,
  {5479126b-301d-4034-9baa-866e96e9c839}, !- Handle
  Surface 10,                             !- Name
  Wall,                                   !- Surface Type
  ,                                       !- Construction Name
  {a97b0463-1b81-42f0-9192-3174727b6168}, !- Space Name
  Outdoors,                               !- Outside Boundary Condition
  ,                                       !- Outside Boundary Condition Object
  SunExposed,                             !- Sun Exposure
  WindExposed,                            !- Wind Exposure
  ,                                       !- View Factor to Ground
  ,                                       !- Number of Vertices
  0, -15.113, 2.7432,                     !- X,Y,Z Vertex 1 {m}
  0, -15.113, 0,                          !- X,Y,Z Vertex 2 {m}
  12.47775, -15.113, 0,                   !- X,Y,Z Vertex 3 {m}
  12.47775, -15.113, 2.7432;              !- X,Y,Z Vertex 4 {m}

OS:Surface,
  {4195555d-86b5-43db-adda-1e851b0bf3b7}, !- Handle
  Surface 11,                             !- Name
  Wall,                                   !- Surface Type
  ,                                       !- Construction Name
  {a97b0463-1b81-42f0-9192-3174727b6168}, !- Space Name
  Surface,                                !- Outside Boundary Condition
  {6a4b3387-9c2c-4ba0-a68d-13542759ef88}, !- Outside Boundary Condition Object
  NoSun,                                  !- Sun Exposure
  NoWind,                                 !- Wind Exposure
  ,                                       !- View Factor to Ground
  ,                                       !- Number of Vertices
  0, 0, 2.7432,                           !- X,Y,Z Vertex 1 {m}
  0, 0, 0,                                !- X,Y,Z Vertex 2 {m}
  0, -15.113, 0,                          !- X,Y,Z Vertex 3 {m}
  0, -15.113, 2.7432;                     !- X,Y,Z Vertex 4 {m}

OS:Surface,
  {f0b13088-8c1b-401f-a86f-79c2b4c1b992}, !- Handle
  Surface 12,                             !- Name
  RoofCeiling,                            !- Surface Type
  ,                                       !- Construction Name
  {a97b0463-1b81-42f0-9192-3174727b6168}, !- Space Name
  Surface,                                !- Outside Boundary Condition
  {3f75bf01-cfd1-4d1e-aa09-f91829d3a648}, !- Outside Boundary Condition Object
  NoSun,                                  !- Sun Exposure
  NoWind,                                 !- Wind Exposure
  ,                                       !- View Factor to Ground
  ,                                       !- Number of Vertices
  12.47775, -15.113, 2.7432,              !- X,Y,Z Vertex 1 {m}
  12.47775, 0, 2.7432,                    !- X,Y,Z Vertex 2 {m}
  0, 0, 2.7432,                           !- X,Y,Z Vertex 3 {m}
  0, -15.113, 2.7432;                     !- X,Y,Z Vertex 4 {m}

OS:Space,
  {6049b4fa-287f-46a8-bb6c-004099aaad3b}, !- Handle
  Space 103,                              !- Name
  {d91c152a-8a6e-4bc5-986b-4848af322c71}, !- Space Type Name
  ,                                       !- Default Construction Set Name
  ,                                       !- Default Schedule Set Name
  ,                                       !- Direction of Relative North {deg}
  24.9555,                                !- X Origin {m}
  15.113,                                 !- Y Origin {m}
  0,                                      !- Z Origin {m}
  {c1b51687-9ee6-4472-abab-a7a980f59cef}, !- Building Story Name
  {bcb71014-9e7b-4b45-bf6c-2fc184885e87}; !- Thermal Zone Name

OS:Surface,
  {1f7570f5-15ac-47fb-a90f-4fd5e66917a6}, !- Handle
  Surface 13,                             !- Name
  Floor,                                  !- Surface Type
  ,                                       !- Construction Name
  {6049b4fa-287f-46a8-bb6c-004099aaad3b}, !- Space Name
  Ground,                                 !- Outside Boundary Condition
  ,                                       !- Outside Boundary Condition Object
  NoSun,                                  !- Sun Exposure
  NoWind,                                 !- Wind Exposure
  ,                                       !- View Factor to Ground
  ,                                       !- Number of Vertices
  12.47775, 0, 0,                         !- X,Y,Z Vertex 1 {m}
  12.47775, -15.113, 0,                   !- X,Y,Z Vertex 2 {m}
  0, -15.113, 0,                          !- X,Y,Z Vertex 3 {m}
  0, 0, 0;                                !- X,Y,Z Vertex 4 {m}

OS:Surface,
  {0e3494e3-1d88-4d14-a390-d1fcf736b135}, !- Handle
  Surface 14,                             !- Name
  Wall,                                   !- Surface Type
  ,                                       !- Construction Name
  {6049b4fa-287f-46a8-bb6c-004099aaad3b}, !- Space Name
  Surface,                                !- Outside Boundary Condition
  {e0e9776c-ba65-49b1-823b-4d43528b5dbc}, !- Outside Boundary Condition Object
  NoSun,                                  !- Sun Exposure
  NoWind,                                 !- Wind Exposure
  ,                                       !- View Factor to Ground
  ,                                       !- Number of Vertices
  12.47775, 0, 2.7432,                    !- X,Y,Z Vertex 1 {m}
  12.47775, 0, 0,                         !- X,Y,Z Vertex 2 {m}
  0, 0, 0,                                !- X,Y,Z Vertex 3 {m}
  0, 0, 2.7432;                           !- X,Y,Z Vertex 4 {m}

OS:Surface,
  {a2cfc1e8-a50f-4754-8451-da3c4cb17a68}, !- Handle
  Surface 15,                             !- Name
  Wall,                                   !- Surface Type
  ,                                       !- Construction Name
  {6049b4fa-287f-46a8-bb6c-004099aaad3b}, !- Space Name
  Surface,                                !- Outside Boundary Condition
  {56ae65d1-06e3-479c-bff6-a7080e2201ef}, !- Outside Boundary Condition Object
  NoSun,                                  !- Sun Exposure
  NoWind,                                 !- Wind Exposure
  ,                                       !- View Factor to Ground
  ,                                       !- Number of Vertices
  12.47775, -15.113, 2.7432,              !- X,Y,Z Vertex 1 {m}
  12.47775, -15.113, 0,                   !- X,Y,Z Vertex 2 {m}
  12.47775, 0, 0,                         !- X,Y,Z Vertex 3 {m}
  12.47775, 0, 2.7432;                    !- X,Y,Z Vertex 4 {m}

OS:Surface,
  {b1fec384-b4db-4f63-9718-9fad0745baff}, !- Handle
  Surface 16,                             !- Name
  Wall,                                   !- Surface Type
  ,                                       !- Construction Name
  {6049b4fa-287f-46a8-bb6c-004099aaad3b}, !- Space Name
  Outdoors,                               !- Outside Boundary Condition
  ,                                       !- Outside Boundary Condition Object
  SunExposed,                             !- Sun Exposure
  WindExposed,                            !- Wind Exposure
  ,                                       !- View Factor to Ground
  ,                                       !- Number of Vertices
  0, -15.113, 2.7432,                     !- X,Y,Z Vertex 1 {m}
  0, -15.113, 0,                          !- X,Y,Z Vertex 2 {m}
  12.47775, -15.113, 0,                   !- X,Y,Z Vertex 3 {m}
  12.47775, -15.113, 2.7432;              !- X,Y,Z Vertex 4 {m}

OS:Surface,
  {d35da6e9-c03f-43c8-9ab1-964406764aa8}, !- Handle
  Surface 17,                             !- Name
  Wall,                                   !- Surface Type
  ,                                       !- Construction Name
  {6049b4fa-287f-46a8-bb6c-004099aaad3b}, !- Space Name
  Surface,                                !- Outside Boundary Condition
  {40fea22e-a01c-4b24-bd3d-f03523969b12}, !- Outside Boundary Condition Object
  NoSun,                                  !- Sun Exposure
  NoWind,                                 !- Wind Exposure
  ,                                       !- View Factor to Ground
  ,                                       !- Number of Vertices
  0, 0, 2.7432,                           !- X,Y,Z Vertex 1 {m}
  0, 0, 0,                                !- X,Y,Z Vertex 2 {m}
  0, -15.113, 0,                          !- X,Y,Z Vertex 3 {m}
  0, -15.113, 2.7432;                     !- X,Y,Z Vertex 4 {m}

OS:Surface,
  {c59f529e-6e00-482d-a725-c5aebce3ab9c}, !- Handle
  Surface 18,                             !- Name
  RoofCeiling,                            !- Surface Type
  ,                                       !- Construction Name
  {6049b4fa-287f-46a8-bb6c-004099aaad3b}, !- Space Name
  Surface,                                !- Outside Boundary Condition
  {fe82798e-359f-4f61-bde1-b04690d91d2e}, !- Outside Boundary Condition Object
  NoSun,                                  !- Sun Exposure
  NoWind,                                 !- Wind Exposure
  ,                                       !- View Factor to Ground
  ,                                       !- Number of Vertices
  12.47775, -15.113, 2.7432,              !- X,Y,Z Vertex 1 {m}
  12.47775, 0, 2.7432,                    !- X,Y,Z Vertex 2 {m}
  0, 0, 2.7432,                           !- X,Y,Z Vertex 3 {m}
  0, -15.113, 2.7432;                     !- X,Y,Z Vertex 4 {m}

OS:Space,
  {f188d358-a8be-4675-94cf-edfa84e91be9}, !- Handle
  Space 104,                              !- Name
  {6b496296-a197-4384-abc1-39e251c83f0f}, !- Space Type Name
  ,                                       !- Default Construction Set Name
  ,                                       !- Default Schedule Set Name
  ,                                       !- Direction of Relative North {deg}
  49.911,                                 !- X Origin {m}
  0,                                      !- Y Origin {m}
  0,                                      !- Z Origin {m}
  {c1b51687-9ee6-4472-abab-a7a980f59cef}, !- Building Story Name
  {6e49deb8-42ff-4109-a550-a2ebf054a11e}; !- Thermal Zone Name

OS:Surface,
  {131becfb-7118-4340-b7bb-0b97d32f97ab}, !- Handle
  Surface 19,                             !- Name
  Floor,                                  !- Surface Type
  ,                                       !- Construction Name
  {f188d358-a8be-4675-94cf-edfa84e91be9}, !- Space Name
  Ground,                                 !- Outside Boundary Condition
  ,                                       !- Outside Boundary Condition Object
  NoSun,                                  !- Sun Exposure
  NoWind,                                 !- Wind Exposure
  ,                                       !- View Factor to Ground
  ,                                       !- Number of Vertices
  0, 15.113, 0,                           !- X,Y,Z Vertex 1 {m}
  0, 0, 0,                                !- X,Y,Z Vertex 2 {m}
  -12.47775, 0, 0,                        !- X,Y,Z Vertex 3 {m}
  -12.47775, 15.113, 0;                   !- X,Y,Z Vertex 4 {m}

OS:Surface,
  {49964e1c-f8c8-4abf-b3f2-29145d0e512b}, !- Handle
  Surface 20,                             !- Name
  Wall,                                   !- Surface Type
  ,                                       !- Construction Name
  {f188d358-a8be-4675-94cf-edfa84e91be9}, !- Space Name
  Outdoors,                               !- Outside Boundary Condition
  ,                                       !- Outside Boundary Condition Object
  SunExposed,                             !- Sun Exposure
  WindExposed,                            !- Wind Exposure
  ,                                       !- View Factor to Ground
  ,                                       !- Number of Vertices
  -12.47775, 0, 2.7432,                   !- X,Y,Z Vertex 1 {m}
  -12.47775, 0, 0,                        !- X,Y,Z Vertex 2 {m}
  0, 0, 0,                                !- X,Y,Z Vertex 3 {m}
  0, 0, 2.7432;                           !- X,Y,Z Vertex 4 {m}

OS:Surface,