
OS:Version,
  {caaff881-ffe4-45c5-a307-ecaa68abf4a7}, !- Handle
  2.2.1;                                  !- Version Identifier

OS:Schedule:Constant,
  {5362ad87-1b35-4912-9c6a-e637bd4c4ffd}, !- Handle
  Always On Discrete,                     !- Name
  {774a102c-20dc-4c33-8bcd-fcfec334c425}, !- Schedule Type Limits Name
  1;                                      !- Value

OS:ScheduleTypeLimits,
  {774a102c-20dc-4c33-8bcd-fcfec334c425}, !- Handle
  Always On Discrete Limits,              !- Name
  0,                                      !- Lower Limit Value
  1,                                      !- Upper Limit Value
  Discrete,                               !- Numeric Type
  Availability;                           !- Unit Type

OS:Facility,
  {cf302468-3453-4b1f-a1ed-b05a0da3cd5c}; ! Handle

OS:Lights:Definition,
  {3bc849e4-6d78-42e0-a441-3a176abeef9c}, ! Handle
  ASHRAE 189.1-2009 ClimateZone 4-8 MediumOffice LightsDef, ! Name
  Watts/Area,                             ! Design Level Calculation Method
  0,                                      ! Lighting Level
  9.687523546064174,                      ! Watts per Space Floor Area
  ,                                       ! Watts per Person
  ,                                       ! Fraction Radiant
  ,                                       ! Fraction Visible
  ,                                       ! Return Air Fraction
  ,                                       ! Return Air Fraction Calculated from Plenum Temperature
  ,                                       ! Return Air Fraction Function of Plenum Temperature Coefficient 1
  ;                                       ! Return Air Fraction Function of Plenum Temperature Coefficient 2

OS:Rendering:Color,
  {3ac3ab6e-838a-4987-a923-7ed16f076f1c}, ! Handle
  000 ExtSlabCarpet 4in ClimateZone 1-8 Color, ! Name
  198.9,                                  ! Rendering Red Value
  0.0,                                    ! Rendering Green Value
  0.0;                                    ! Rendering Blue Value

OS:Rendering:Color,
  {336262c3-ed6f-4bd5-bd5b-d932449932e2}, ! Handle
  000 Exterior Door Color,                ! Name
  124.3125,                               ! Rendering Red Value
  74.5875,                                ! Rendering Green Value
  89.505;                                 ! Rendering Blue Value

OS:Rendering:Color,
  {5258d57d-6d17-494e-9c3b-4c56919ea2f6}, ! Handle
  000 Exterior Window Color,              ! Name
  198.9,                                  ! Rendering Red Value
  0.0,                                    ! Rendering Green Value
  59.6699999999999,                       ! Rendering Blue Value
  ;                                       ! Rendering Alpha Value

OS:Rendering:Color,
  {d215b2b0-0241-4ad0-b07c-0df46d01f486}, ! Handle
  000 Interior Ceiling Color,             ! Name
  219.096,                                ! Rendering Red Value
  142.8,                                  ! Rendering Green Value
  255.0;                                  ! Rendering Blue Value

OS:Rendering:Color,
  {10b662a5-17eb-4067-8ab6-1c6c92619ced}, ! Handle
  000 Interior Door Color,                ! Name
  168.606,                                ! Rendering Red Value
  255.0,                                  ! Rendering Green Value
  142.8;                                  ! Rendering Blue Value

OS:Rendering:Color,
  {994d202e-504a-4148-84f1-46b26fd74ce7}, ! Handle
  000 Interior Floor Color,               ! Name
  255.0,                                  ! Rendering Red Value
  142.8,                                  ! Rendering Green Value
  142.8;                                  ! Rendering Blue Value

OS:Rendering:Color,
  {3345a47f-3148-4884-93eb-8d5a5a0a785d}, ! Handle
  000 Interior Partition Color,           ! Name
  165.24,                                 ! Rendering Red Value
  142.8,                                  ! Rendering Green Value
  255.0;                                  ! Rendering Blue Value

OS:Rendering:Color,
  {a4e4bf50-8f71-4600-993d-4ea1ca2afada}, ! Handle
  000 Interior Wall Color,                ! Name
  142.8,                                  ! Rendering Red Value
  201.144,                                ! Rendering Green Value
  255.0;                                  ! Rendering Blue Value

OS:Rendering:Color,
  {6a66ec3d-9ebd-481c-931c-fad8647d508d}, ! Handle
  000 Interior Window Color,              ! Name
  235.926,                                ! Rendering Red Value
  255.0,                                  ! Rendering Green Value
  142.8;                                  ! Rendering Blue Value

OS:Rendering:Color,
  {ffe7c1fb-032c-4ec1-a24d-8d1e06bad54e}, ! Handle
  ASHRAE 189.1-2009 ClimateZone 4-8 MediumOffice Color, ! Name
  120.36,                                 ! Rendering Red Value
  236.64,                                 ! Rendering Green Value
  201.756;                                ! Rendering Blue Value

OS:Rendering:Color,
  {00efa528-c739-4942-bb54-971e350d5081}, ! Handle
  ASHRAE 189.1-2009 ExtRoof IEAD ClimateZone 2-5 Color, ! Name
  150.1695,                               ! Rendering Red Value
  14.9175,                                ! Rendering Green Value
  183.9825,                               ! Rendering Blue Value
  ;                                       ! Rendering Alpha Value

OS:Rendering:Color,
  {6d1599e9-d10c-498e-a73e-8cbb2dcd9066}, ! Handle
  ASHRAE 189.1-2009 ExtWall SteelFrame ClimateZone 4-8 Color, ! Name
  21.1139999999998,                       ! Rendering Red Value
  17.2125,                                ! Rendering Green Value
  212.2875;                               ! Rendering Blue Value

OS:Rendering:Color,
  {d43e1bbd-8f3c-4474-9188-3505c2d039e8}, ! Handle
  ASHRAE 189.1-2009 ExtWindow ClimateZone 4-5 Color, ! Name
  109.6653,                               ! Rendering Red Value
  238.935,                                ! Rendering Green Value
  56.865,                                 ! Rendering Blue Value
  ;                                       ! Rendering Alpha Value

OS:Rendering:Color,
  {f16d79c6-23ca-4509-a014-2175d9ec5914}, ! Handle
  Air Wall Color,                         ! Name
  255,                                    ! Rendering Red Value
  69,                                     ! Rendering Green Value
  0,                                      ! Rendering Blue Value
  ;                                       ! Rendering Alpha Value

OS:Rendering:Color,
  {dca0f93c-b0ab-49ea-a058-869b6aa0620c}, ! Handle
  Empty Space Type Color,                 ! Name
  128.0,                                  ! Rendering Red Value
  128.0,                                  ! Rendering Green Value
  128.0;                                  ! Rendering Blue Value

OS:RunPeriodControl:DaylightSavingTime,
  {693caa13-3e74-48ae-8045-a3a848c2807a}, ! Handle
  2nd Sunday in March,                    ! Start Date
  1st Sunday in November;                 ! End Date

OS:RunPeriodControl:SpecialDays,
  {01427c50-9f95-4617-88ea-a0e9186837e8}, ! Handle
  Christmas,                              ! Name
  December 25,                            ! Start Date
  1,                                      ! Duration
  Holiday;                                ! Special Day Type

OS:RunPeriodControl:SpecialDays,
  {4f7bd1ef-5d66-416c-b7cd-645da80eb8db}, ! Handle
  Columbus Day,                           ! Name
  2nd Monday in October,                  ! Start Date
  1,                                      ! Duration
  Holiday;                                ! Special Day Type

OS:RunPeriodControl:SpecialDays,
  {c89b3655-49ce-4e5d-97c9-b2095fd6db9c}, ! Handle
  Independence Day,                       ! Name
  July 4,                                 ! Start Date
  1,                                      ! Duration
  Holiday;                                ! Special Day Type

OS:RunPeriodControl:SpecialDays,
  {bc7c5297-77e3-4f10-bc89-f8f14a796e35}, ! Handle
  Labor Day,                              ! Name
  1st Monday in September,                ! Start Date
  1,                                      ! Duration
  Holiday;                                ! Special Day Type

OS:RunPeriodControl:SpecialDays,
  {d5293439-b4e0-42c4-ae8f-39daf0fa9e60}, ! Handle
  MLK Day,                                ! Name
  3rd Monday in January,                  ! Start Date
  1,                                      ! Duration
  Holiday;                                ! Special Day Type

OS:RunPeriodControl:SpecialDays,
  {5053f38e-2fe7-4c10-afbd-cc1965219b26}, ! Handle
  Memorial Day,                           ! Name
  Last Monday in May,                     ! Start Date
  1,                                      ! Duration
  Holiday;                                ! Special Day Type

OS:RunPeriodControl:SpecialDays,
  {246c2b99-5ff6-48d4-a556-71bb50fed76b}, ! Handle
  New Years Day,                          ! Name
  January 1,                              ! Start Date
  1,                                      ! Duration
  Holiday;                                ! Special Day Type

OS:RunPeriodControl:SpecialDays,
  {086bd7a3-d72e-44c0-acc9-70d041c4c2f5}, ! Handle
  Presidents Day,                         ! Name
  3rd Monday in February,                 ! Start Date
  1,                                      ! Duration
  Holiday;                                ! Special Day Type

OS:RunPeriodControl:SpecialDays,
  {675b176b-6342-4e06-9b76-f297a6b58c55}, ! Handle
  Thanksgiving,                           ! Name
  4th Thursday in November,               ! Start Date
  1,                                      ! Duration
  Holiday;                                ! Special Day Type

OS:RunPeriodControl:SpecialDays,
  {4d4d7ba3-4fd8-4f69-9194-9b7ffe61cc8d}, ! Handle
  Veterans Day,                           ! Name
  November 11,                            ! Start Date
  1,                                      ! Duration
  Holiday;                                ! Special Day Type

OS:ScheduleTypeLimits,
  {a36b9707-67e9-4ac7-87d8-bca1cdc8d977}, ! Handle
  Any Number;                             ! Name

OS:ScheduleTypeLimits,
  {d5de7a23-6ee1-4151-a263-1bfb8dd0a2ce}, ! Handle
  Control Type,                           ! Name
  0,                                      ! Lower Limit Value
  4,                                      ! Upper Limit Value
  DISCRETE;                               ! Numeric Type

OS:ScheduleTypeLimits,
  {34a5bba4-16c2-43a7-83db-1840d06ef230}, ! Handle
  Fraction,                               ! Name
  0,                                      ! Lower Limit Value
  1,                                      ! Upper Limit Value
  CONTINUOUS;                             ! Numeric Type

OS:ScheduleTypeLimits,
  {860056cb-f9ed-447b-aaaf-630c68f1cc0e}, ! Handle
  On/Off,                                 ! Name
  0,                                      ! Lower Limit Value
  1,                                      ! Upper Limit Value
  DISCRETE;                               ! Numeric Type

OS:SimulationControl,
  {657ba578-29ab-439c-87b6-218865343bf2}, ! Handle
  No,                                     ! Do Zone Sizing Calculation
  No,                                     ! Do System Sizing Calculation
  No,                                     ! Do Plant Sizing Calculation
  No,                                     ! Run Simulation for Sizing Periods
  Yes,                                    ! Run Simulation for Weather File Run Periods
  0.04,                                   ! Loads Convergence Tolerance Value
  0.40000000000000002,                    ! Temperature Convergence Tolerance Value
  FullInteriorAndExterior,                ! Solar Distribution
  366,                                    ! Maximum Number of Warmup Days
  100;                                    !- Minimum Number of Warmup Days

OS:ThermostatSetpoint:DualSetpoint,
  {c88ac18f-c615-49c3-9fcc-d0b9ae67be58}, ! Handle
  Medium Office Thermostat,               ! Name
  ,                                       ! Heating Setpoint Temperature Schedule Name
  ;                                       ! Cooling Setpoint Temperature Schedule Name

OS:Timestep,
  {8a10f874-3682-42ca-98c2-f4b68d8deb26}, ! Handle
  4;                                      ! Number of Timesteps per Hour

OS:DesignSpecification:OutdoorAir,
  {1c61d1cd-d199-4946-9ac5-8496d110c280}, ! Handle
  MediumOffice Outdoor Air,               ! Name
  Sum,                                    ! Outdoor Air Method
  0.0107645200000431,                     ! Outdoor Air Flow per Person
  0.0,                                    ! Outdoor Air Flow per Floor Area
  0,                                      ! Outdoor Air Flow Rate
  0,                                      ! Outdoor Air Flow Air Changes per Hour
  ;                                       ! Outdoor Air Flow Rate Fraction Schedule Name

OS:ScheduleTypeLimits,
  {d0f0b867-4833-4c23-97b4-2d2103a11327}, ! Handle
  ActivityLevel,                          ! Name
  0,                                      ! Lower Limit Value {BasedOnField A4}
  ,                                       ! Upper Limit Value {BasedOnField A4}
  Continuous,                             ! Numeric Type
  ActivityLevel;                          ! Unit Type

OS:ScheduleTypeLimits,
  {b2323053-24fd-48bf-91c8-981699edab0b}, ! Handle
  Temperature 1,                          ! Name
  ,                                       ! Lower Limit Value {BasedOnField A4}
  ,                                       ! Upper Limit Value {BasedOnField A4}
  Continuous,                             ! Numeric Type
  Temperature;                            ! Unit Type

OS:ScheduleTypeLimits,
  {a1b286a2-734b-4de1-aca9-74651817c459}, ! Handle
  Temperature 2,                          ! Name
  ,                                       ! Lower Limit Value {BasedOnField A4}
  ,                                       ! Upper Limit Value {BasedOnField A4}
  Continuous,                             ! Numeric Type
  Temperature;                            ! Unit Type

OS:YearDescription,
  {809b5ab2-87e8-4866-bec9-d980e49142d1}, !- Handle
  ,                                       !- Calendar Year
  Sunday;                                 !- Day of Week for Start Day

OS:RadianceParameters,
  {2eb509d0-1a26-472a-bd1c-c61784b296ee}, !- Handle
  1,                                      !- Accumulated Rays per Record
  0,                                      !- Direct Threshold
  1,                                      !- Direct Certainty
  1,                                      !- Direct Jitter
  1,                                      !- Direct Pretest
  6,                                      !- Ambient Bounces VMX
  2,                                      !- Ambient Bounces DMX
  4050,                                   !- Ambient Divisions VMX
  512,                                    !- Ambient Divisions DMX
  256,                                    !- Ambient Supersamples
  0.001,                                  !- Limit Weight VMX
  0.001,                                  !- Limit Weight DMX
  500,                                    !- Klems Sampling Density
  146;                                    !- Sky Discretization Resolution

OS:Sizing:Parameters,
  {aa9efb9a-e1a2-4135-acf8-3bc07a2bf442}, !- Handle
  1.25,                                   !- Heating Sizing Factor
  1.15;                                   !- Cooling Sizing Factor

OS:ProgramControl,
  {dd027b9b-797f-43a2-9fe4-fed2ea0451e2}; !- Handle

OS:OutputControl:ReportingTolerances,
  {f94dd277-bb50-4652-a96e-e789a6ecac2e}, !- Handle
  1,                                      !- Tolerance for Time Heating Setpoint Not Met {deltaC}
  1;                                      !- Tolerance for Time Cooling Setpoint Not Met {deltaC}

OS:ConvergenceLimits,
  {9b0de7b4-4edd-4363-a6e3-f05196839ae4}; !- Handle

OS:ShadowCalculation,
  {d5c8db6b-6209-4bc8-a8fa-13de55f73e26}, !- Handle
  7,                                      !- Calculation Frequency
  15000;                                  !- Maximum Figures in Shadow Overlap Calculations

OS:SurfaceConvectionAlgorithm:Inside,
  {7f7c8376-984d-48d1-a3f1-0033019201c6}, !- Handle
  TARP;                                   !- Algorithm

OS:SurfaceConvectionAlgorithm:Outside,
  {35271dd5-67cf-4be8-b272-44d6ce590f3c}, !- Handle
  DOE-2;                                  !- Algorithm

OS:HeatBalanceAlgorithm,
  {4193a26b-61e2-424e-bdee-ab6cf9b298bc}, !- Handle
  ConductionTransferFunction,             !- Algorithm
  200;                                    !- Surface Temperature Upper Limit {C}

OS:ZoneAirHeatBalanceAlgorithm,
  {72cc2b96-3417-49d7-b44b-a8cc30c0fa37}, !- Handle
  AnalyticalSolution;                     !- Algorithm

OS:ZoneAirContaminantBalance,
  {80be4605-7388-4a32-9882-500939222f03}; !- Handle

OS:ZoneCapacitanceMultiplier:ResearchSpecial,
  {bf7c02d2-6a17-4e53-8904-917d4386405e}, !- Handle
  ,                                       !- Temperature Capacity Multiplier
  ,                                       !- Humidity Capacity Multiplier
  ;                                       !- Carbon Dioxide Capacity Multiplier

OS:RunPeriod,
  {b03d2804-4308-438a-a841-e83e586f739e}, !- Handle
  Run Period 1,                           !- Name
  1,                                      !- Begin Month
  1,                                      !- Begin Day of Month
  12,                                     !- End Month
  31,                                     !- End Day of Month
  ,                                       !- Use Weather File Holidays and Special Days
  ,                                       !- Use Weather File Daylight Saving Period
  ,                                       !- Apply Weekend Holiday Rule
  ,                                       !- Use Weather File Rain Indicators
  ,                                       !- Use Weather File Snow Indicators
  ;                                       !- Number of Times Runperiod to be Repeated

OS:Site,
  {80df6887-aaf0-4943-9e5d-26510ac1b1f8}, !- Handle
  Site 1,                                 !- Name
  39.83,                                  !- Latitude {deg}
  -104.65,                                !- Longitude {deg}
  -7,                                     !- Time Zone {hr}
  1650,                                   !- Elevation {m}
  ;                                       !- Terrain

OS:Building,
  {08678ddd-175a-469b-9626-2f02c40b6916}, !- Handle
  Medium Office,                          !- Name
  ,                                       !- Building Sector Type
  -0,                                     !- North Axis {deg}
  ,                                       !- Nominal Floor to Floor Height {m}
  {8b2a4601-5d4d-425d-bfb4-f9cfb93beb62}, !- Space Type Name
  {907173f9-80c3-4b69-a330-bac8fc1428e9}, !- Default Construction Set Name
  {b2ceeb1c-9194-4630-9ca1-d3d1d449e6bf}, !- Default Schedule Set Name
  ,                                       !- Standards Number of Stories
  ,                                       !- Standards Number of Above Ground Stories
  PrimarySchool;                          !- Standards Building Type

OS:ClimateZones,
  {03734246-7f0f-4b71-9186-8d79c77ae2e6}, !- Handle
  ,                                       !- Active Institution
  ,                                       !- Active Year
  ASHRAE,                                 !- Climate Zone Institution Name 1
  ANSI/ASHRAE Standard 169,               !- Climate Zone Document Name 1
  2006,                                   !- Climate Zone Document Year 1
  ,                                       !- Climate Zone Value 1
  CEC,                                    !- Climate Zone Institution Name 2
  California Climate Zone Descriptions,   !- Climate Zone Document Name 2
  1995,                                   !- Climate Zone Document Year 2
  ;                                       !- Climate Zone Value 2

OS:LifeCycleCost:Parameters,
  {25ee80aa-2927-4ab3-b84e-d3b5e76080fb}, !- Handle
  FEMP,                                   !- Analysis Type
  ,                                       !- Discounting Convention
  ,                                       !- Inflation Approach
  ,                                       !- Real Discount Rate
  ,                                       !- Nominal Discount Rate
  ,                                       !- Inflation
  ,                                       !- Base Date Month
  ,                                       !- Base Date Year
  ,                                       !- Service Date Month
  ,                                       !- Service Date Year
  ,                                       !- Length of Study Period in Years
  ,                                       !- Tax Rate
  ,                                       !- Depreciation Method
  Yes;                                    !- Use NIST Fuel Escalation Rates

OS:DefaultConstructionSet,
  {907173f9-80c3-4b69-a330-bac8fc1428e9}, !- Handle
  Default Construction Set 1,             !- Name
  {86c2eb89-d745-4499-a83c-dd81ef173be1}, !- Default Exterior Surface Constructions Name
  {9fac65d2-e967-46a4-8fcd-143b6708a810}, !- Default Interior Surface Constructions Name
  {115448b7-ef7a-4912-b811-195875a99b91}, !- Default Ground Contact Surface Constructions Name
  {01a102bb-15d3-41ac-a78a-d91f15e9b249}, !- Default Exterior SubSurface Constructions Name
  {f1755de1-90c0-4b29-8b17-23b4f736b5cf}, !- Default Interior SubSurface Constructions Name
  ,                                       !- Interior Partition Construction Name
  ,                                       !- Space Shading Construction Name
  ,                                       !- Building Shading Construction Name
  ;                                       !- Site Shading Construction Name

OS:DefaultSurfaceConstructions,
  {86c2eb89-d745-4499-a83c-dd81ef173be1}, !- Handle
  Default Surface Constructions 1,        !- Name
  ,                                       !- Floor Construction Name
  {e5918644-a14a-4cd8-b966-08f2e8cde8ab}, !- Wall Construction Name
  {197ea59f-4c35-4e8d-82f3-17ca6f9028a2}; !- Roof Ceiling Construction Name

OS:DefaultSurfaceConstructions,
  {9fac65d2-e967-46a4-8fcd-143b6708a810}, !- Handle
  Default Surface Constructions 2,        !- Name
  {389ed9fc-3153-4682-87f4-663116b23b16}, !- Floor Construction Name
  {976e62cf-276b-4306-8c67-ef3dacbd98e0}, !- Wall Construction Name
  {af680992-439f-4179-b70e-d01aba560fed}; !- Roof Ceiling Construction Name

OS:DefaultSurfaceConstructions,
  {115448b7-ef7a-4912-b811-195875a99b91}, !- Handle
  Default Surface Constructions 3,        !- Name
  {6f48bc28-8e75-4262-9fad-7ae6ac4b3817}, !- Floor Construction Name
  ,                                       !- Wall Construction Name
  ;                                       !- Roof Ceiling Construction Name

OS:DefaultSubSurfaceConstructions,
  {01a102bb-15d3-41ac-a78a-d91f15e9b249}, !- Handle
  Default Sub Surface Constructions 1,    !- Name
  ,                                       !- Fixed Window Construction Name
  ,                                       !- Operable Window Construction Name
  ,                                       !- Door Construction Name
  ,                                       !- Glass Door Construction Name
  ,                                       !- Overhead Door Construction Name
  ,                                       !- Skylight Construction Name
  ,                                       !- Tubular Daylight Dome Construction Name
  ;                                       !- Tubular Daylight Diffuser Construction Name

OS:DefaultSubSurfaceConstructions,
  {f1755de1-90c0-4b29-8b17-23b4f736b5cf}, !- Handle
  Default Sub Surface Constructions 2,    !- Name
  ,                                       !- Fixed Window Construction Name
  ,                                       !- Operable Window Construction Name
  ,                                       !- Door Construction Name
  ,                                       !- Glass Door Construction Name
  ,                                       !- Overhead Door Construction Name
  ,                                       !- Skylight Construction Name
  ,                                       !- Tubular Daylight Dome Construction Name
  ;                                       !- Tubular Daylight Diffuser Construction Name

OS:Construction,
  {e5918644-a14a-4cd8-b966-08f2e8cde8ab}, !- Handle
  Steel-Framed_R-13_Ext-wall,             !- Name
  {9d1dcf84-bf29-44ca-b6dc-747dfa8fee73}, !- Surface Rendering Name
  {a888337e-da8c-4f32-8dfa-101f177be340}, !- Layer 1
  {d59390ad-65dc-468d-b3dc-746b3a423e1c}, !- Layer 2
  {03c2faf8-4191-400c-9b49-e3dceb69711c}; !- Layer 3

OS:StandardsInformation:Construction,
  {57cc1d6f-c9fc-4816-a1b9-3e1aaa30dec4}, !- Handle
  {e5918644-a14a-4cd8-b966-08f2e8cde8ab}, !- Construction Name
  ExteriorWall,                           !- Intended Surface Type
  SteelFramed;                            !- Standards Construction Type

OS:Construction,
  {197ea59f-4c35-4e8d-82f3-17ca6f9028a2}, !- Handle
  IEAD_R-15 ci_Roof,                      !- Name
  {eefe1150-3f03-4b38-9adf-ce6e5cd49b9f}, !- Surface Rendering Name
  {0c5a8dd4-9a45-4b98-816b-879d90aae111}, !- Layer 1
  {d3478ba1-2a9f-4770-b40b-c267b045e450}, !- Layer 2
  {79b68c7b-34c5-4b79-a499-c24aacdf2f6a}; !- Layer 3

OS:StandardsInformation:Construction,
  {63d6a1e9-13b2-423c-a15a-dfe4cb642c21}, !- Handle
  {197ea59f-4c35-4e8d-82f3-17ca6f9028a2}, !- Construction Name
  ExteriorRoof,                           !- Intended Surface Type
  IEAD;                                   !- Standards Construction Type

OS:Construction,
  {389ed9fc-3153-4682-87f4-663116b23b16}, !- Handle
  INT-FLOOR-TOPSIDE,                      !- Name
  {6c2214ae-ab61-4ba8-98f0-899eec3faf03}, !- Surface Rendering Name
  {38eb0535-a2d0-471a-94e1-0c42c885e0d4}, !- Layer 1
  {4e95e291-1ce2-4273-9ee0-894189bea907}; !- Layer 2

OS:StandardsInformation:Construction,
  {e1a5f0a1-7238-4b88-ba5c-b758da5c0186}, !- Handle
  {389ed9fc-3153-4682-87f4-663116b23b16}; !- Construction Name

OS:Construction,
  {976e62cf-276b-4306-8c67-ef3dacbd98e0}, !- Handle
  Standard_Int-Wall,                      !- Name
  {915d4f84-7eb2-4cfc-91cb-842a10b0bed9}, !- Surface Rendering Name
  {66affda7-ca7d-443b-8241-4a15e12c1293}, !- Layer 1
  {66affda7-ca7d-443b-8241-4a15e12c1293}; !- Layer 2

OS:Construction,
  {af680992-439f-4179-b70e-d01aba560fed}, !- Handle
  INT-FLOOR-UNDERSIDE,                    !- Name
  {f1fbbad1-9aad-4a9a-8919-501eea97b507}, !- Surface Rendering Name
  {4e95e291-1ce2-4273-9ee0-894189bea907}, !- Layer 1
  {38eb0535-a2d0-471a-94e1-0c42c885e0d4}; !- Layer 2

OS:StandardsInformation:Construction,
  {55ac8ef5-0223-42ae-899f-0bbde6b4877d}, !- Handle
  {af680992-439f-4179-b70e-d01aba560fed}; !- Construction Name

OS:Construction,
  {6f48bc28-8e75-4262-9fad-7ae6ac4b3817}, !- Handle
  4 inch HW Slab with Carpet Pad,         !- Name
  {5f84926c-192c-46bb-8368-b274d97e9c35}, !- Surface Rendering Name
  {2e810b07-4ba0-4c39-a139-70259bfe6527}, !- Layer 1
  {b9c3e192-f99d-470e-ac72-733efe6caa4b}; !- Layer 2

OS:StandardsInformation:Construction,
  {f24f31de-76f1-4d10-8fc2-e52c67dc74cb}, !- Handle
  {6f48bc28-8e75-4262-9fad-7ae6ac4b3817}, !- Construction Name
  GroundContactFloor,                     !- Intended Surface Type
  Unheated;                               !- Standards Construction Type

OS:Rendering:Color,
  {9d1dcf84-bf29-44ca-b6dc-747dfa8fee73}, !- Handle
  Rendering Color 7,                      !- Name
  245,                                    !- Rendering Red Value
  255,                                    !- Rendering Green Value
  250;                                    !- Rendering Blue Value

OS:Material:NoMass,
  {a888337e-da8c-4f32-8dfa-101f177be340}, !- Handle
  MAT-SHEATH,                             !- Name
  Rough,                                  !- Roughness
  0.3626,                                 !- Thermal Resistance {m2-K/W}
  0.9,                                    !- Thermal Absorptance
  0.7,                                    !- Solar Absorptance
  0.7;                                    !- Visible Absorptance

OS:Material,
  {d59390ad-65dc-468d-b3dc-746b3a423e1c}, !- Handle
  Wall Insulation [1],                    !- Name
  MediumRough,                            !- Roughness
  0.0373,                                 !- Thickness {m}
  0.045,                                  !- Conductivity {W/m-K}
  265,                                    !- Density {kg/m3}
  836.8,                                  !- Specific Heat {J/kg-K}
  0.9,                                    !- Thermal Absorptance
  0.7,                                    !- Solar Absorptance
  0.7;                                    !- Visible Absorptance

OS:Material,
  {03c2faf8-4191-400c-9b49-e3dceb69711c}, !- Handle
  1/2IN Gypsum,                           !- Name
  Smooth,                                 !- Roughness
  0.0127,                                 !- Thickness {m}
  0.16,                                   !- Conductivity {W/m-K}
  784.9,                                  !- Density {kg/m3}
  830,                                    !- Specific Heat {J/kg-K}
  0.9,                                    !- Thermal Absorptance
  0.92,                                   !- Solar Absorptance
  0.92;                                   !- Visible Absorptance

OS:StandardsInformation:Material,
  {6732a6da-8a60-460a-925b-04f0026a63e0}, !- Handle
  {03c2faf8-4191-400c-9b49-e3dceb69711c}; !- Material Name

OS:Rendering:Color,
  {eefe1150-3f03-4b38-9adf-ce6e5cd49b9f}, !- Handle
  Rendering Color 1,                      !- Name
  32,                                     !- Rendering Red Value
  178,                                    !- Rendering Green Value
  170;                                    !- Rendering Blue Value

OS:Material,