
OS:Version,
  {6081e97a-00d5-4d29-a654-ffec77cc69f9}, !- Handle
  1.2.3;                                  !- Version Identifier

OS:Schedule:Constant,
  {50493d31-b952-4f0a-b577-e73d5bec5843}, !- Handle
  Always On Discrete,                     !- Name
  {4dcb7b3d-745f-4c65-b09f-e35c812212de}, !- Schedule Type Limits Name
  1;                                      !- Value

OS:ScheduleTypeLimits,
  {4dcb7b3d-745f-4c65-b09f-e35c812212de}, !- Handle
  Always On Discrete Limits,              !- Name
  0,                                      !- Lower Limit Value {BasedOnField A4}
  1,                                      !- Upper Limit Value {BasedOnField A4}
  Discrete,                               !- Numeric Type
  Availability;                           !- Unit Type

OS:Construction,
  {da0a9c19-bb57-42b9-a5d6-cbb453c0f4be}, ! Handle
  000 AtticRoof ClimateZone 1-8,          ! Name
  {6e477626-cba3-416c-8fa9-11958d48e487}, ! Surface Rendering Name
  {42fbe718-f606-4ef7-93e6-12d1c77ce650}, ! Layer 1
  {9c4024a4-a3d8-4eca-b921-57bf7c90959c}; ! Layer 2

OS:Construction,
  {dce2379c-a5ff-4ef3-80a2-701790d14358}, ! Handle
  000 ExtSlabCarpet 4in ClimateZone 1-8,  ! Name
  {ecfa81ca-7382-4230-98df-9dff21abaf03}, ! Surface Rendering Name
  {7452ad07-1048-48c0-9faf-246c5a991fd7}, ! Layer 1
  {36e62389-026f-4c3f-833b-f95697048797}; ! Layer 2

OS:Construction,
  {744cec07-4526-4703-b2c0-1ffee996b328}, ! Handle
  000 Exterior Door,                      ! Name
  {d915b165-a84c-4193-9f28-bebe97c01591}, ! Surface Rendering Name
  {9106a0e1-939d-4dec-ac4d-7fad3e78a5b8}, ! Layer 1
  {b7b29a34-b470-4fce-9c20-6c5d510ab765}; ! Layer 2

OS:Construction,
  {df4da930-86e5-48a4-962a-18eaffcea66d}, ! Handle
  000 Exterior Window,                    ! Name
  {ce205436-73d8-40a8-878a-dd604324942b}, ! Surface Rendering Name
  {c509ebb8-9f57-483d-b97c-4d2c9eea5251}, ! Layer 1
  {45e6e977-19de-47d1-bdad-42f87e5d4704}, ! Layer 2
  {c509ebb8-9f57-483d-b97c-4d2c9eea5251}; ! Layer 3

OS:Construction,
  {639ed2d6-84af-4fae-89ed-60783bec4fed}, ! Handle
  000 Interior Ceiling,                   ! Name
  {d1522ab3-02ac-4e1f-886f-df48f0551987}, ! Surface Rendering Name
  {7dfde206-fc96-4a24-975a-a6a956ee1664}, ! Layer 1
  {63cf6010-d8da-4cce-ad4a-e587f4f98e30}, ! Layer 2
  {96ac13bf-304b-40f2-b22c-d486b2f8204c}; ! Layer 3

OS:Construction,
  {479db337-e776-4389-b2ef-9fa76dd60cc3}, ! Handle
  000 Interior Door,                      ! Name
  {311bb898-443c-46d4-83e4-cfbc0e2ad80d}, ! Surface Rendering Name
  {24ff4ee3-b9e9-4cef-a2a3-d2dbadfc442a}; ! Layer 1

OS:Construction,
  {7ec4d8b3-510f-4488-8bd7-64cb1cf00f02}, ! Handle
  000 Interior Floor,                     ! Name
  {83c5e00b-b818-4e0b-8adb-b7f0676734a0}, ! Surface Rendering Name
  {96ac13bf-304b-40f2-b22c-d486b2f8204c}, ! Layer 1
  {63cf6010-d8da-4cce-ad4a-e587f4f98e30}, ! Layer 2
  {7dfde206-fc96-4a24-975a-a6a956ee1664}; ! Layer 3

OS:Construction,
  {84b47802-1f6f-4bb5-9ab6-a87c31110bfd}, ! Handle
  000 Interior Partition,                 ! Name
  {252cc75a-0c74-4d48-bbee-a4de421d39db}, ! Surface Rendering Name
  {24ff4ee3-b9e9-4cef-a2a3-d2dbadfc442a}; ! Layer 1

OS:Construction,
  {a8a3d188-b7b3-4088-8374-b6df6061bd04}, ! Handle
  000 Interior Wall,                      ! Name
  {afcd22d5-f704-4e7e-8ad0-ff78b0c586f4}, ! Surface Rendering Name
  {d2967a99-4cb6-45b5-9517-f2bf1d1db12f}, ! Layer 1
  {d4c05300-971c-4bb7-89cb-b1d78652cc09}, ! Layer 2
  {d2967a99-4cb6-45b5-9517-f2bf1d1db12f}; ! Layer 3

OS:Construction,
  {3ab1b49b-bc3b-4a7f-9906-26bf04c7c637}, ! Handle
  000 Interior Window,                    ! Name
  {964192d0-3122-438d-bf36-a424826c2502}, ! Surface Rendering Name
  {c509ebb8-9f57-483d-b97c-4d2c9eea5251}; ! Layer 1

OS:Construction,
  {ca1d7741-2bc2-4073-accb-fb79553d7e75}, ! Handle
  ASHRAE 189.1-2009 AtticFloor ClimateZone 1-8, ! Name
  {8d440e2b-ef08-499f-9884-b4c0a4bdbca6}, ! Surface Rendering Name
  {ca6276a3-6aea-4e41-a4ca-df8a266cdd35}, ! Layer 1
  {dab65cf1-bae0-4818-84b0-838cd56d3c10}, ! Layer 2
  {ca6276a3-6aea-4e41-a4ca-df8a266cdd35}; ! Layer 3

OS:Construction,
  {2a0a63ae-23c8-4ee6-b35a-af5ad93e9ee7}, ! Handle
  ASHRAE 189.1-2009 ExtRoof IEAD ClimateZone 2-5, ! Name
  {be5c3d1d-94e1-468f-87b2-9a8c3ab7454d}, ! Surface Rendering Name
  {42fbe718-f606-4ef7-93e6-12d1c77ce650}, ! Layer 1
  {400a9bc9-735d-47d5-a64f-b733862aa635}, ! Layer 2
  {9c4024a4-a3d8-4eca-b921-57bf7c90959c}; ! Layer 3

OS:Construction,
  {efa5246e-80dd-4b86-94a5-cf3575463e5f}, ! Handle
  ASHRAE 189.1-2009 ExtWall SteelFrame ClimateZone 4-8, ! Name
  {7dfc6d35-fff0-4095-b344-23440afeef7b}, ! Surface Rendering Name
  {13ec98d6-7324-4705-bc7c-754ba0f8d6f7}, ! Layer 1
  {80e57326-032d-45d1-9e60-862a62cdca73}, ! Layer 2
  {ca6276a3-6aea-4e41-a4ca-df8a266cdd35}; ! Layer 3

OS:DefaultScheduleSet,
  {aad81813-3e56-4766-be1b-cd124746b9ce}, ! Handle
  PrimarySchool Cafeteria Schedules,      ! Name
  ,                                       ! Hours of Operation Schedule Name
  {d3785fa2-5db9-43dd-98c4-65d6c691648e}, ! Number of People Schedule Name
  {d2c1d88e-ac0d-4965-a8a1-32e07a767ed5}, ! People Activity Level Schedule Name
  {85db303d-84db-4e7e-8e31-6423989cd480}, ! Lighting Schedule Name
  {f384de10-a763-4564-92c0-f8b7d6eae222}, ! Electric Equipment Schedule Name
  ,                                       ! Gas Equipment Schedule Name
  ,                                       ! Hot Water Equipment Schedule Name
  {753df3e3-feb5-4737-ae52-4bda36621cb1}, ! Infiltration Schedule Name
  ,                                       ! Steam Equipment Schedule Name
  ;                                       ! Other Equipment Schedule Name

OS:DefaultScheduleSet,
  {a7e0342b-2e41-427b-93fa-b33aac647dd0}, ! Handle
  PrimarySchool Classroom Schedules,      ! Name
  ,                                       ! Hours of Operation Schedule Name
  {f2e55ca1-47c3-4cee-9adb-fae6b0fbb2c1}, ! Number of People Schedule Name
  {d2c1d88e-ac0d-4965-a8a1-32e07a767ed5}, ! People Activity Level Schedule Name
  {85db303d-84db-4e7e-8e31-6423989cd480}, ! Lighting Schedule Name
  {f384de10-a763-4564-92c0-f8b7d6eae222}, ! Electric Equipment Schedule Name
  ,                                       ! Gas Equipment Schedule Name
  ,                                       ! Hot Water Equipment Schedule Name
  {753df3e3-feb5-4737-ae52-4bda36621cb1}, ! Infiltration Schedule Name
  ,                                       ! Steam Equipment Schedule Name
  ;                                       ! Other Equipment Schedule Name

OS:DefaultScheduleSet,
  {9bc024d4-0dfb-4f3a-920e-1dcc49161b26}, ! Handle
  PrimarySchool Corridor Schedules,       ! Name
  ,                                       ! Hours of Operation Schedule Name
  {f2e55ca1-47c3-4cee-9adb-fae6b0fbb2c1}, ! Number of People Schedule Name
  {d2c1d88e-ac0d-4965-a8a1-32e07a767ed5}, ! People Activity Level Schedule Name
  {85db303d-84db-4e7e-8e31-6423989cd480}, ! Lighting Schedule Name
  {f384de10-a763-4564-92c0-f8b7d6eae222}, ! Electric Equipment Schedule Name
  ,                                       ! Gas Equipment Schedule Name
  ,                                       ! Hot Water Equipment Schedule Name
  {753df3e3-feb5-4737-ae52-4bda36621cb1}, ! Infiltration Schedule Name
  ,                                       ! Steam Equipment Schedule Name
  ;                                       ! Other Equipment Schedule Name

OS:DefaultScheduleSet,
  {4ec1d8d9-f14c-4b6c-bb48-366738100634}, ! Handle
  PrimarySchool Gym Schedules,            ! Name
  ,                                       ! Hours of Operation Schedule Name
  {7b70f886-8935-46e0-9817-013555776a17}, ! Number of People Schedule Name
  {d2c1d88e-ac0d-4965-a8a1-32e07a767ed5}, ! People Activity Level Schedule Name
  {85db303d-84db-4e7e-8e31-6423989cd480}, ! Lighting Schedule Name
  {f384de10-a763-4564-92c0-f8b7d6eae222}, ! Electric Equipment Schedule Name
  ,                                       ! Gas Equipment Schedule Name
  ,                                       ! Hot Water Equipment Schedule Name
  {753df3e3-feb5-4737-ae52-4bda36621cb1}, ! Infiltration Schedule Name
  ,                                       ! Steam Equipment Schedule Name
  ;                                       ! Other Equipment Schedule Name

OS:DefaultScheduleSet,
  {630886b3-a5d2-4c1c-ab05-a52aa5adb6d9}, ! Handle
  PrimarySchool Kitchen Schedules,        ! Name
  ,                                       ! Hours of Operation Schedule Name
  {f2e55ca1-47c3-4cee-9adb-fae6b0fbb2c1}, ! Number of People Schedule Name
  {d2c1d88e-ac0d-4965-a8a1-32e07a767ed5}, ! People Activity Level Schedule Name
  {85db303d-84db-4e7e-8e31-6423989cd480}, ! Lighting Schedule Name
  {83e06f05-d053-45a7-bb3f-649f4272726a}, ! Electric Equipment Schedule Name
  {b905f687-a716-4715-8ceb-5ef9aa13a5fc}, ! Gas Equipment Schedule Name
  ,                                       ! Hot Water Equipment Schedule Name
  {753df3e3-feb5-4737-ae52-4bda36621cb1}, ! Infiltration Schedule Name
  ,                                       ! Steam Equipment Schedule Name
  ;                                       ! Other Equipment Schedule Name

OS:DefaultScheduleSet,
  {a8d156db-d5c9-4830-a9f1-602b1b992d66}, ! Handle
  PrimarySchool Library Schedules,        ! Name
  ,                                       ! Hours of Operation Schedule Name
  {f2e55ca1-47c3-4cee-9adb-fae6b0fbb2c1}, ! Number of People Schedule Name
  {d2c1d88e-ac0d-4965-a8a1-32e07a767ed5}, ! People Activity Level Schedule Name
  {85db303d-84db-4e7e-8e31-6423989cd480}, ! Lighting Schedule Name
  {f384de10-a763-4564-92c0-f8b7d6eae222}, ! Electric Equipment Schedule Name
  ,                                       ! Gas Equipment Schedule Name
  ,                                       ! Hot Water Equipment Schedule Name
  {753df3e3-feb5-4737-ae52-4bda36621cb1}, ! Infiltration Schedule Name
  ,                                       ! Steam Equipment Schedule Name
  ;                                       ! Other Equipment Schedule Name

OS:DefaultScheduleSet,
  {819225f9-0f09-4b13-844d-4dc37c25cae9}, ! Handle
  PrimarySchool Lobby Schedules,          ! Name
  ,                                       ! Hours of Operation Schedule Name
  {f2e55ca1-47c3-4cee-9adb-fae6b0fbb2c1}, ! Number of People Schedule Name
  {d2c1d88e-ac0d-4965-a8a1-32e07a767ed5}, ! People Activity Level Schedule Name
  {85db303d-84db-4e7e-8e31-6423989cd480}, ! Lighting Schedule Name
  {f384de10-a763-4564-92c0-f8b7d6eae222}, ! Electric Equipment Schedule Name
  ,                                       ! Gas Equipment Schedule Name
  ,                                       ! Hot Water Equipment Schedule Name
  {753df3e3-feb5-4737-ae52-4bda36621cb1}, ! Infiltration Schedule Name
  ,                                       ! Steam Equipment Schedule Name
  ;                                       ! Other Equipment Schedule Name

OS:DefaultScheduleSet,
  {ee768049-80c6-459b-bbc5-5b30ecd2691e}, ! Handle
  PrimarySchool Mechanical Schedules,     ! Name
  ,                                       ! Hours of Operation Schedule Name
  {f2e55ca1-47c3-4cee-9adb-fae6b0fbb2c1}, ! Number of People Schedule Name
  {d2c1d88e-ac0d-4965-a8a1-32e07a767ed5}, ! People Activity Level Schedule Name
  {85db303d-84db-4e7e-8e31-6423989cd480}, ! Lighting Schedule Name
  {f384de10-a763-4564-92c0-f8b7d6eae222}, ! Electric Equipment Schedule Name
  ,                                       ! Gas Equipment Schedule Name
  ,                                       ! Hot Water Equipment Schedule Name
  {753df3e3-feb5-4737-ae52-4bda36621cb1}, ! Infiltration Schedule Name
  ,                                       ! Steam Equipment Schedule Name
  ;                                       ! Other Equipment Schedule Name

OS:DefaultScheduleSet,
  {cee3e03a-7876-4383-b3b1-c4348f376a46}, ! Handle
  PrimarySchool Office Schedules,         ! Name
  ,                                       ! Hours of Operation Schedule Name
  {f2e55ca1-47c3-4cee-9adb-fae6b0fbb2c1}, ! Number of People Schedule Name
  {d2c1d88e-ac0d-4965-a8a1-32e07a767ed5}, ! People Activity Level Schedule Name
  {85db303d-84db-4e7e-8e31-6423989cd480}, ! Lighting Schedule Name
  {f384de10-a763-4564-92c0-f8b7d6eae222}, ! Electric Equipment Schedule Name
  ,                                       ! Gas Equipment Schedule Name
  ,                                       ! Hot Water Equipment Schedule Name
  {753df3e3-feb5-4737-ae52-4bda36621cb1}, ! Infiltration Schedule Name
  ,                                       ! Steam Equipment Schedule Name
  ;                                       ! Other Equipment Schedule Name

OS:DefaultScheduleSet,
  {3f21b4a2-8d0e-484e-a925-11d5fdad00d5}, ! Handle
  PrimarySchool Restroom Schedules,       ! Name
  ,                                       ! Hours of Operation Schedule Name
  {f2e55ca1-47c3-4cee-9adb-fae6b0fbb2c1}, ! Number of People Schedule Name
  {d2c1d88e-ac0d-4965-a8a1-32e07a767ed5}, ! People Activity Level Schedule Name
  {85db303d-84db-4e7e-8e31-6423989cd480}, ! Lighting Schedule Name
  {f384de10-a763-4564-92c0-f8b7d6eae222}, ! Electric Equipment Schedule Name
  ,                                       ! Gas Equipment Schedule Name
  ,                                       ! Hot Water Equipment Schedule Name
  {753df3e3-feb5-4737-ae52-4bda36621cb1}, ! Infiltration Schedule Name
  ,                                       ! Steam Equipment Schedule Name
  ;                                       ! Other Equipment Schedule Name

OS:DefaultScheduleSet,
  {fafb4229-8ca9-452c-90e5-f71abe59ad84}, ! Handle
  Attic Schedules,                        ! Name
  ,                                       ! Hours of Operation Schedule Name
  ,                                       ! Number of People Schedule Name
  ,                                       ! People Activity Level Schedule Name
  ,                                       ! Lighting Schedule Name
  ,                                       ! Electric Equipment Schedule Name
  ,                                       ! Gas Equipment Schedule Name
  ,                                       ! Hot Water Equipment Schedule Name
  {f21c7129-110d-4e67-9a0d-f81cbc2e4c6a}, ! Infiltration Schedule Name
  ,                                       ! Steam Equipment Schedule Name
  ;                                       ! Other Equipment Schedule Name

OS:DefaultSubSurfaceConstructions,
  {8c6d8201-f227-49aa-88d2-ee80c0fd224d}, ! Handle
  000 Interior DefSubCons,                ! Name
  {3ab1b49b-bc3b-4a7f-9906-26bf04c7c637}, ! Fixed Window Construction Name
  {3ab1b49b-bc3b-4a7f-9906-26bf04c7c637}, ! Operable Window Construction Name
  {479db337-e776-4389-b2ef-9fa76dd60cc3}, ! Door Construction Name
  {df4da930-86e5-48a4-962a-18eaffcea66d}, ! Glass Door Construction Name
  ,                                       ! Overhead Door Construction Name
  {df4da930-86e5-48a4-962a-18eaffcea66d}, ! Skylight Construction Name
  {3ab1b49b-bc3b-4a7f-9906-26bf04c7c637}, ! Tubular Daylight Dome Construction Name
  {3ab1b49b-bc3b-4a7f-9906-26bf04c7c637}; ! Tubular Daylight Diffuser Construction Name

OS:DefaultSurfaceConstructions,
  {027baa97-1531-424b-84ca-2681bc8c91d1}, ! Handle
  000 Ground DefSurfCons,                 ! Name
  {dce2379c-a5ff-4ef3-80a2-701790d14358}, ! Floor Construction Name
  {dce2379c-a5ff-4ef3-80a2-701790d14358}, ! Wall Construction Name
  {dce2379c-a5ff-4ef3-80a2-701790d14358}; ! Roof Ceiling Construction Name

OS:DefaultSurfaceConstructions,
  {2f68a7b1-6d0a-4ba4-886e-283b384e3080}, ! Handle
  000 Interior DefSurfCons,               ! Name
  {7ec4d8b3-510f-4488-8bd7-64cb1cf00f02}, ! Floor Construction Name
  {a8a3d188-b7b3-4088-8374-b6df6061bd04}, ! Wall Construction Name
  {639ed2d6-84af-4fae-89ed-60783bec4fed}; ! Roof Ceiling Construction Name

OS:DesignSpecification:OutdoorAir,
  {4e43d69b-f07c-41bf-b972-d55193e59cb5}, ! Handle
  PrimarySchool Cafeteria Outdoor Air,    ! Name
  Sum,                                    ! Outdoor Air Method
  0.01076452,                             ! Outdoor Air Flow per Person
  0.0,                                    ! Outdoor Air Flow per Floor Area
  0,                                      ! Outdoor Air Flow Rate
  0,                                      ! Outdoor Air Flow Air Changes per Hour
  ;                                       ! Outdoor Air Flow Rate Fraction Schedule Name

OS:DesignSpecification:OutdoorAir,
  {3c8d1ed5-c3d4-4367-aa4f-add3683680fa}, ! Handle
  PrimarySchool Classroom Outdoor Air,    ! Name
  Sum,                                    ! Outdoor Air Method
  0.0086106,                              ! Outdoor Air Flow per Person
  0.0,                                    ! Outdoor Air Flow per Floor Area
  0,                                      ! Outdoor Air Flow Rate
  0,                                      ! Outdoor Air Flow Air Changes per Hour
  ;                                       ! Outdoor Air Flow Rate Fraction Schedule Name

OS:DesignSpecification:OutdoorAir,
  {2561fd5b-cff4-48bb-8b06-31aa7e9fbc4a}, ! Handle
  PrimarySchool Corridor Outdoor Air,     ! Name
  Sum,                                    ! Outdoor Air Method
  0.0,                                    ! Outdoor Air Flow per Person
  0.000508,                               ! Outdoor Air Flow per Floor Area
  0,                                      ! Outdoor Air Flow Rate
  0,                                      ! Outdoor Air Flow Air Changes per Hour
  ;                                       ! Outdoor Air Flow Rate Fraction Schedule Name

OS:DesignSpecification:OutdoorAir,
  {3df9d5e2-f15d-41e4-b43e-4e95448416ba}, ! Handle
  PrimarySchool Gym Outdoor Air,          ! Name
  Sum,                                    ! Outdoor Air Method
  0.01076452,                             ! Outdoor Air Flow per Person
  0.0,                                    ! Outdoor Air Flow per Floor Area
  0,                                      ! Outdoor Air Flow Rate
  0,                                      ! Outdoor Air Flow Air Changes per Hour
  ;                                       ! Outdoor Air Flow Rate Fraction Schedule Name

OS:DesignSpecification:OutdoorAir,
  {8fe52428-752d-4d02-84b0-1d2342c59807}, ! Handle
  PrimarySchool Kitchen Outdoor Air,      ! Name
  Sum,                                    ! Outdoor Air Method
  0.0086106,                              ! Outdoor Air Flow per Person
  0.0,                                    ! Outdoor Air Flow per Floor Area
  0,                                      ! Outdoor Air Flow Rate
  0,                                      ! Outdoor Air Flow Air Changes per Hour
  ;                                       ! Outdoor Air Flow Rate Fraction Schedule Name

OS:DesignSpecification:OutdoorAir,
  {9989b241-071a-49b0-bfb5-8145196b971b}, ! Handle
  PrimarySchool Library Outdoor Air,      ! Name
  Sum,                                    ! Outdoor Air Method
  0.0086106,                              ! Outdoor Air Flow per Person
  0.0,                                    ! Outdoor Air Flow per Floor Area
  0,                                      ! Outdoor Air Flow Rate
  0,                                      ! Outdoor Air Flow Air Changes per Hour
  ;                                       ! Outdoor Air Flow Rate Fraction Schedule Name

OS:DesignSpecification:OutdoorAir,
  {edf72354-c74a-440f-93db-1351c69f0b00}, ! Handle
  PrimarySchool Lobby Outdoor Air,        ! Name
  Sum,                                    ! Outdoor Air Method
  0.0,                                    ! Outdoor Air Flow per Person
  0.000508,                               ! Outdoor Air Flow per Floor Area
  0,                                      ! Outdoor Air Flow Rate
  0,                                      ! Outdoor Air Flow Air Changes per Hour
  ;                                       ! Outdoor Air Flow Rate Fraction Schedule Name

OS:DesignSpecification:OutdoorAir,
  {f245a025-f409-45ab-a013-05f7f83dfaee}, ! Handle
  PrimarySchool Mechanical Outdoor Air,   ! Name
  Sum,                                    ! Outdoor Air Method
  0.0,                                    ! Outdoor Air Flow per Person
  0.000508,                               ! Outdoor Air Flow per Floor Area
  0,                                      ! Outdoor Air Flow Rate
  0,                                      ! Outdoor Air Flow Air Changes per Hour
  ;                                       ! Outdoor Air Flow Rate Fraction Schedule Name

OS:DesignSpecification:OutdoorAir,
  {fac3000d-2de5-4867-8e40-598f6236d0cd}, ! Handle
  PrimarySchool Office Outdoor Air,       ! Name
  Sum,                                    ! Outdoor Air Method
  0.01076452,                             ! Outdoor Air Flow per Person
  0.0,                                    ! Outdoor Air Flow per Floor Area
  0,                                      ! Outdoor Air Flow Rate
  0,                                      ! Outdoor Air Flow Air Changes per Hour
  ;                                       ! Outdoor Air Flow Rate Fraction Schedule Name

OS:DesignSpecification:OutdoorAir,
  {05bce6c0-a893-4e38-85e4-bab572b89ad3}, ! Handle
  PrimarySchool Restroom Outdoor Air,     ! Name
  Sum,                                    ! Outdoor Air Method
  0.02690876,                             ! Outdoor Air Flow per Person
  0.0,                                    ! Outdoor Air Flow per Floor Area
  0,                                      ! Outdoor Air Flow Rate
  0,                                      ! Outdoor Air Flow Air Changes per Hour
  ;                                       ! Outdoor Air Flow Rate Fraction Schedule Name

OS:ElectricEquipment,
  {39a95cb8-7645-4b5d-b05d-294461002ae4}, ! Handle
  ASHRAE 189.1-2009 ClimateZone 4-8 PrimarySchool Cafeteria ElecInst, ! Name
  {b14bbc5e-848e-45d7-91d4-5b701d790727}, ! Electric Equipment Definition Name
  {20a5a7c8-a475-4b66-aeda-919701b9b913}, ! Space or SpaceType Name
  ,                                       ! Schedule Name
  ,                                       ! Multiplier
  ElectricEquipment;                      ! End-Use Subcategory

OS:ElectricEquipment,
  {0d8d6c42-8d9a-4d57-96e0-5c3c53fabca8}, ! Handle
  ASHRAE 189.1-2009 ClimateZone 4-8 PrimarySchool Classroom ElecInst, ! Name
  {a3ed1051-a2bc-44d8-90f8-c0e6122f2171}, ! Electric Equipment Definition Name
  {5fdc6902-6bc7-4f7b-8d8c-2a3625138d15}, ! Space or SpaceType Name
  ,                                       ! Schedule Name
  ,                                       ! Multiplier
  ElectricEquipment;                      ! End-Use Subcategory

OS:ElectricEquipment,
  {8591db58-942f-480f-9034-3fc3cee91792}, ! Handle
  ASHRAE 189.1-2009 ClimateZone 4-8 PrimarySchool Corridor ElecInst, ! Name
  {ef636e68-4642-4c6c-ab46-ffb6f2971144}, ! Electric Equipment Definition Name
  {108c4323-a6d5-4d70-a3e4-ef4fa85fc944}, ! Space or SpaceType Name
  ,                                       ! Schedule Name
  ,                                       ! Multiplier
  ElectricEquipment;                      ! End-Use Subcategory

OS:ElectricEquipment:Definition,
  {f83b939c-9625-42a6-b789-92f8309e3f8f}, ! Handle
  ASHRAE 189.1-2009 ClimateZone 1-3 PrimarySchool Cafeteria ElecDef, ! Name
  Watts/Area,                             ! Design Level Calculation Method
  0,                                      ! Design Level
  18.51392591674072,                      ! Watts per Space Floor Area
  ;                                       ! Watts per Person

OS:ElectricEquipment:Definition,
  {c7113e16-6be4-40d3-9977-8aa4dcdccf9e}, ! Handle
  ASHRAE 189.1-2009 ClimateZone 1-3 PrimarySchool Classroom ElecDef, ! Name
  Watts/Area,                             ! Design Level Calculation Method
  0,                                      ! Design Level
  10.979188625043916,                     ! Watts per Space Floor Area
  ;                                       ! Watts per Person

OS:ElectricEquipment:Definition,
  {415819a2-b7ab-4885-bbd0-d6cdc9151c41}, ! Handle
  ASHRAE 189.1-2009 ClimateZone 1-3 PrimarySchool Corridor ElecDef, ! Name
  Watts/Area,                             ! Design Level Calculation Method
  0,                                      ! Design Level
  2.906255812511625,                      ! Watts per Space Floor Area
  ;                                       ! Watts per Person

OS:ElectricEquipment:Definition,
  {e1c8c770-9510-44dc-8eaa-c876944338dc}, ! Handle
  ASHRAE 189.1-2009 ClimateZone 1-3 PrimarySchool Gym ElecDef, ! Name
  Watts/Area,                             ! Design Level Calculation Method
  0,                                      ! Design Level
  3.659729541681306,                      ! Watts per Space Floor Area
  ;                                       ! Watts per Person

OS:ElectricEquipment:Definition,
  {dd526e7d-8a2d-4705-bbca-9f9ab6fb6040}, ! Handle
  ASHRAE 189.1-2009 ClimateZone 1-3 PrimarySchool Kitchen ElecDef, ! Name
  Watts/Area,                             ! Design Level Calculation Method
  0,                                      ! Design Level
  141.33014377139867,                     ! Watts per Space Floor Area
  ;                                       ! Watts per Person

OS:ElectricEquipment:Definition,
  {32f3718a-175d-4ba8-bf50-f128a892f983}, ! Handle
  ASHRAE 189.1-2009 ClimateZone 1-3 PrimarySchool Library ElecDef, ! Name
  Watts/Area,                             ! Design Level Calculation Method
  0,                                      ! Design Level
  10.979188625043916,                     ! Watts per Space Floor Area
  ;                                       ! Watts per Person

OS:ElectricEquipment:Definition,
  {55356ac8-b2ff-409e-b436-64e8bc050a85}, ! Handle
  ASHRAE 189.1-2009 ClimateZone 1-3 PrimarySchool Lobby ElecDef, ! Name
  Watts/Area,                             ! Design Level Calculation Method
  0,                                      ! Design Level
  2.906255812511625,                      ! Watts per Space Floor Area
  ;                                       ! Watts per Person

OS:ElectricEquipment:Definition,
  {a0ac5279-a03a-479b-be58-fd0ab589d951}, ! Handle
  ASHRAE 189.1-2009 ClimateZone 1-3 PrimarySchool Mechanical ElecDef, ! Name
  Watts/Area,                             ! Design Level Calculation Method
  0,                                      ! Design Level
  2.906255812511625,                      ! Watts per Space Floor Area
  ;                                       ! Watts per Person

OS:ElectricEquipment:Definition,
  {d59dcd6b-25d9-4c31-8bdb-83ce5768e8c0}, ! Handle
  ASHRAE 189.1-2009 ClimateZone 1-3 PrimarySchool Office ElecDef, ! Name
  Watts/Area,                             ! Design Level Calculation Method
  0,                                      ! Design Level
  7.857654604198097,                      ! Watts per Space Floor Area
  ;                                       ! Watts per Person

OS:ElectricEquipment:Definition,
  {1bc6bab9-7e00-4ab6-b479-421cf58a3778}, ! Handle
  ASHRAE 189.1-2009 ClimateZone 1-3 PrimarySchool Restroom ElecDef, ! Name
  Watts/Area,                             ! Design Level Calculation Method
  0,                                      ! Design Level
  2.906255812511625,                      ! Watts per Space Floor Area
  ;                                       ! Watts per Person

OS:ElectricEquipment:Definition,
  {b14bbc5e-848e-45d7-91d4-5b701d790727}, ! Handle
  ASHRAE 189.1-2009 ClimateZone 4-8 PrimarySchool Cafeteria ElecDef, ! Name
  Watts/Area,                             ! Design Level Calculation Method
  0,                                      ! Design Level
  18.51392591674072,                      ! Watts per Space Floor Area
  ;                                       ! Watts per Person

OS:ElectricEquipment:Definition,
  {a3ed1051-a2bc-44d8-90f8-c0e6122f2171}, ! Handle
  ASHRAE 189.1-2009 ClimateZone 4-8 PrimarySchool Classroom ElecDef, ! Name
  Watts/Area,                             ! Design Level Calculation Method
  0,                                      ! Design Level
  10.979188625043916,                     ! Watts per Space Floor Area
  ;                                       ! Watts per Person

OS:ElectricEquipment:Definition,
  {ef636e68-4642-4c6c-ab46-ffb6f2971144}, ! Handle
  ASHRAE 189.1-2009 ClimateZone 4-8 PrimarySchool Corridor ElecDef, ! Name
  Watts/Area,                             ! Design Level Calculation Method
  0,                                      ! Design Level
  2.906255812511625,                      ! Watts per Space Floor Area
  ;                                       ! Watts per Person

OS:ElectricEquipment:Definition,
  {86b9ace4-a640-4614-bfa2-ebad550ed046}, ! Handle
  ASHRAE 189.1-2009 ClimateZone 4-8 PrimarySchool Gym ElecDef, ! Name
  Watts/Area,                             ! Design Level Calculation Method
  0,                                      ! Design Level
  3.659729541681306,                      ! Watts per Space Floor Area
  ;                                       ! Watts per Person

OS:ElectricEquipment:Definition,
  {25a35c50-4cf6-4931-9dd4-0f596a9db056}, ! Handle
  ASHRAE 189.1-2009 ClimateZone 4-8 PrimarySchool Kitchen ElecDef, ! Name
  Watts/Area,                             ! Design Level Calculation Method
  0,                                      ! Design Level
  141.33014377139867,                     ! Watts per Space Floor Area
  ;                                       ! Watts per Person

OS:ElectricEquipment:Definition,
  {e923a435-596b-4cfc-8561-512bf822465d}, ! Handle
  ASHRAE 189.1-2009 ClimateZone 4-8 PrimarySchool Library ElecDef, ! Name
  Watts/Area,                             ! Design Level Calculation Method
  0,                                      ! Design Level
  10.979188625043916,                     ! Watts per Space Floor Area
  ;                                       ! Watts per Person

OS:ElectricEquipment:Definition,
  {434ccec6-718d-4e36-8550-195b39eab02f}, ! Handle
  ASHRAE 189.1-2009 ClimateZone 4-8 PrimarySchool Lobby ElecDef, ! Name