
OS:Version,
  {88be018a-669a-44ce-ad1b-0e378c14725f}, !- Handle
  1.2.5;                                  !- Version Identifier

OS:Site,
  {ae1e48cf-5e11-407c-8575-f04c4136b26e}, !- Handle
  USA IL-CHICAGO-OHARE,                   !- Name
  41.98,                                  !- Latitude {deg}
  -87.92,                                 !- Longitude {deg}
  -6,                                     !- Time Zone {hr}
  201,                                    !- Elevation {m}
  City;                                   !- Terrain

OS:SimulationControl,
  {408f317d-d44f-4d0c-9c88-2a49c202e4be}, !- Handle
  Yes,                                    !- Do Zone Sizing Calculation
  Yes,                                    !- Do System Sizing Calculation
  Yes,                                    !- Do Plant Sizing Calculation
  Yes,                                    !- Run Simulation for Sizing Periods
  Yes,                                    !- Run Simulation for Weather File Run Periods
  0.04,                                   !- Loads Convergence Tolerance Value
  0.2,                                    !- Temperature Convergence Tolerance Value {deltaC}
  FullInteriorAndExterior,                !- Solar Distribution
  25,                                     !- Maximum Number of Warmup Days
  6;                                      !- Minimum Number of Warmup Days

OS:WindowMaterial:Gas,
  {1cdd68ce-bb8d-481a-b4c4-ccf91a02abde}, !- Handle
  Air,                                    !- Name
  Air,                                    !- Gas Type
  0.0127;                                 !- Thickness {m}

OS:Surface,
  {02589e5e-f0dc-468f-933c-6d9f593f3602}, !- Handle
  Bathrooms_ZN_1_FLR_1_Floor,             !- Name
  Floor,                                  !- Surface Type
  ,                                       !- Construction Name
  {f6b90de1-627a-450e-b1d7-37aa68dca887}, !- Space Name
  Ground,                                 !- Outside Boundary Condition
  ,                                       !- Outside Boundary Condition Object
  NoSun,                                  !- Sun Exposure
  NoWind,                                 !- Wind Exposure
  ,                                       !- View Factor to Ground
  ,                                       !- Number of Vertices
  15, 14, 0,                              !- X,Y,Z Vertex 1 {m}
  15, 0, 0,                               !- X,Y,Z Vertex 2 {m}
  0, 0, 0,                                !- X,Y,Z Vertex 3 {m}
  0, 14, 0;                               !- X,Y,Z Vertex 4 {m}

OS:Material,
  {c7cd4ab9-3a16-4057-a196-da2dda70d61c}, !- Handle
  HW CONCRETE,                            !- Name
  Rough,                                  !- Roughness
  0.1016,                                 !- Thickness {m}
  1.311,                                  !- Conductivity {W/m-K}
  2240,                                   !- Density {kg/m3}
  836.8,                                  !- Specific Heat {J/kg-K}
  0.9,                                    !- Thermal Absorptance
  0.7,                                    !- Solar Absorptance
  0.7;                                    !- Visible Absorptance

OS:Material:NoMass,
  {f16ea040-eeb4-4f0a-b958-73960debace9}, !- Handle
  CP02 CARPET PAD,                        !- Name
  VeryRough,                              !- Roughness
  0.2165,                                 !- Thermal Resistance {m2-K/W}
  0.9,                                    !- Thermal Absorptance
  0.7,                                    !- Solar Absorptance
  0.8;                                    !- Visible Absorptance

OS:ThermalZone,
  {65e27e50-535b-4ae5-bc2b-a956440d18d7}, !- Handle
  Bathrooms_ZN_1_FLR_1 Thermal Zone,      !- Name
  1,                                      !- Multiplier
  ,                                       !- Ceiling Height {m}
  ,                                       !- Volume {m3}
  ,                                       !- Floor Area {m2}
  ,                                       !- Zone Inside Convection Algorithm
  ,                                       !- Zone Outside Convection Algorithm
  ,                                       !- Zone Conditioning Equipment List Name
  {33e381d2-aeb6-4988-9fb6-9c504a87ae0d}, !- Zone Air Inlet Port List
  {19e15b21-1408-440d-a677-ef36cfce43d0}, !- Zone Air Exhaust Port List
  {061ff251-7f19-4120-be2d-7a7c7e74ef6a}, !- Zone Air Node Name
  {5dda609c-33b5-4493-b34f-c87d7acca6d3}, !- Zone Return Air Node Name
  ,                                       !- Primary Daylighting Control Name
  ,                                       !- Fraction of Zone Controlled by Primary Daylighting Control
  ,                                       !- Secondary Daylighting Control Name
  ,                                       !- Fraction of Zone Controlled by Secondary Daylighting Control
  ,                                       !- Illuminance Map Name
  {03e52974-26b8-45e5-b021-1993355911a8}, !- Group Rendering Name
  {9916c016-09c9-4a68-9d08-4b0f6b269680}, !- Thermostat Name
  No;                                     !- Use Ideal Air Loads

OS:Node,
  {bc0403ae-a053-4427-96be-a2a12eb3376d}, !- Handle
  {5cfc2c64-77a9-4e06-8ad7-a42bcd18141b}, !- Name
  {061ff251-7f19-4120-be2d-7a7c7e74ef6a}, !- Inlet Port
  ;                                       !- Outlet Port

OS:Connection,
  {061ff251-7f19-4120-be2d-7a7c7e74ef6a}, !- Handle
  {be3a14ef-2d33-4cc4-ab90-faa138e9b34d}, !- Name
  {65e27e50-535b-4ae5-bc2b-a956440d18d7}, !- Source Object
  11,                                     !- Outlet Port
  {bc0403ae-a053-4427-96be-a2a12eb3376d}, !- Target Object
  2;                                      !- Inlet Port

OS:PortList,
  {33e381d2-aeb6-4988-9fb6-9c504a87ae0d}, !- Handle
  {2bc99427-e7cd-4ba5-88c2-a17278d48562}, !- Name
  {65e27e50-535b-4ae5-bc2b-a956440d18d7}, !- HVAC Component
  {2ac5e5c4-bacd-47d1-a898-c0c432170231}; !- Port 1

OS:PortList,
  {19e15b21-1408-440d-a677-ef36cfce43d0}, !- Handle
  {0ba1bdbc-2dec-494f-bfc6-491546868975}, !- Name
  {65e27e50-535b-4ae5-bc2b-a956440d18d7}, !- HVAC Component
  {13dfa4c4-34ea-4554-b541-fdb51d627491}; !- Port 1

OS:Sizing:Zone,
  {ab4546be-8574-46ea-a1c5-9697bfef2ee1}, !- Handle
  {65e27e50-535b-4ae5-bc2b-a956440d18d7}, !- Zone or ZoneList Name
  14,                                     !- Zone Cooling Design Supply Air Temperature {C}
  40,                                     !- Zone Heating Design Supply Air Temperature {C}
  0.0085,                                 !- Zone Cooling Design Supply Air Humidity Ratio {kg-H2O/kg-air}
  0.008,                                  !- Zone Heating Design Supply Air Humidity Ratio {kg-H2O/kg-air}
  ,                                       !- Zone Heating Sizing Factor
  ,                                       !- Zone Cooling Sizing Factor
  ,                                       !- Cooling Design Air Flow Method
  ,                                       !- Cooling Design Air Flow Rate {m3/s}
  ,                                       !- Cooling Minimum Air Flow per Zone Floor Area {m3/s-m2}
  ,                                       !- Cooling Minimum Air Flow {m3/s}
  ,                                       !- Cooling Minimum Air Flow Fraction
  DesignDay,                              !- Heating Design Air Flow Method
  ,                                       !- Heating Design Air Flow Rate {m3/s}
  ,                                       !- Heating Maximum Air Flow per Zone Floor Area {m3/s-m2}
  ,                                       !- Heating Maximum Air Flow {m3/s}
  ,                                       !- Heating Maximum Air Flow Fraction
  ,                                       !- Design Zone Air Distribution Effectiveness in Cooling Mode
  ;                                       !- Design Zone Air Distribution Effectiveness in Heating Mode

OS:ZoneHVAC:EquipmentList,
  {c9d9c8b5-b803-486b-b288-215022c8c029}, !- Handle
  {963f09db-7d59-4c8a-866d-75c1a5a9e452}, !- Name
  {65e27e50-535b-4ae5-bc2b-a956440d18d7}, !- Thermal Zone
  {bc4dd78a-c86a-482b-9ec9-a65159f45eef}, !- Zone Equipment 1
  1,                                      !- Zone Equipment Cooling Sequence 1
  1;                                      !- Zone Equipment Heating or No-Load Sequence 1

OS:Space,
  {f6b90de1-627a-450e-b1d7-37aa68dca887}, !- Handle
  Bathrooms_ZN_1_FLR_1,                   !- Name
  {4244bd25-bfd0-4356-bedc-8de41bf1770a}, !- Space Type Name
  ,                                       !- Default Construction Set Name
  ,                                       !- Default Schedule Set Name
  0,                                      !- Direction of Relative North {deg}
  64,                                     !- X Origin {m}
  90,                                     !- Y Origin {m}
  0,                                      !- Z Origin {m}
  {b4761232-4af5-4411-a42e-468e361fc7d8}, !- Building Story Name
  {65e27e50-535b-4ae5-bc2b-a956440d18d7}, !- Thermal Zone Name
  Yes,                                    !- Part of Total Floor Area
  ;                                       !- Design Specification Outdoor Air Object Name

OS:ThermostatSetpoint:DualSetpoint,
  {812a57ad-e431-433e-a85a-b55e4acdfe5e}, !- Handle
  {5d3f466e-ea01-4d42-beab-71bff493f25b}, !- Name
  {142c714f-7687-4458-a143-df6556acf0ee}, !- Heating Setpoint Temperature Schedule Name
  {f9695fa7-fce9-4d3b-89f4-2bfde0154ad0}; !- Cooling Setpoint Temperature Schedule Name

OS:Schedule:Compact,
  {142c714f-7687-4458-a143-df6556acf0ee}, !- Handle
  HTGSETP_SCH_BathCorrMechKitchen,        !- Name
  {b92399d1-e26a-4ded-8b97-1eb5b75dcac3}, !- Schedule Type Limits Name
  Through: 12/31,                         !- Field 1
  For: WinterDesignDay,                   !- Field 2
  Until: 06:00,                           !- Field 3
  16,                                     !- Field 4
  Until: 21:00,                           !- Field 5
  21,                                     !- Field 6
  Until: 24:00,                           !- Field 7
  16,                                     !- Field 8
  For: AllOtherDays,                      !- Field 9
  Until: 24:00,                           !- Field 10
  16;                                     !- Field 11

OS:ScheduleTypeLimits,
  {b92399d1-e26a-4ded-8b97-1eb5b75dcac3}, !- Handle
  Temperature,                            !- Name
  -60,                                    !- Lower Limit Value {BasedOnField A4}
  200,                                    !- Upper Limit Value {BasedOnField A4}
  CONTINUOUS,                             !- Numeric Type
  Temperature;                            !- Unit Type

OS:Schedule:Compact,
  {f9695fa7-fce9-4d3b-89f4-2bfde0154ad0}, !- Handle
  CLGSETP_SCH_BathCorrMechKitchen,        !- Name
  {b92399d1-e26a-4ded-8b97-1eb5b75dcac3}, !- Schedule Type Limits Name
  Through: 12/31,                         !- Field 1
  For: SummerDesignDay,                   !- Field 2
  Until: 06:00,                           !- Field 3
  27,                                     !- Field 4
  Until: 21:00,                           !- Field 5
  24,                                     !- Field 6
  Until: 24:00,                           !- Field 7
  27,                                     !- Field 8
  For: AllOtherDays,                      !- Field 9
  Until: 24:00,                           !- Field 10
  27;                                     !- Field 11

OS:ThermalZone,
  {fc18d254-bac1-4325-9ecc-3652c4d9e4f1}, !- Handle
  Mech_ZN_1_FLR_1 Thermal Zone,           !- Name
  1,                                      !- Multiplier
  ,                                       !- Ceiling Height {m}
  ,                                       !- Volume {m3}
  ,                                       !- Floor Area {m2}
  ,                                       !- Zone Inside Convection Algorithm
  ,                                       !- Zone Outside Convection Algorithm
  ,                                       !- Zone Conditioning Equipment List Name
  {dbfbef85-490d-4fcb-9dde-e75ef676ff2f}, !- Zone Air Inlet Port List
  {6b581250-ce43-44cb-adc7-a24256c2349a}, !- Zone Air Exhaust Port List
  {415934aa-9460-4252-856f-61dce2d23cff}, !- Zone Air Node Name
  {ea2f9ebc-4c3b-4eff-ad60-541fdf8892de}, !- Zone Return Air Node Name
  ,                                       !- Primary Daylighting Control Name
  ,                                       !- Fraction of Zone Controlled by Primary Daylighting Control
  ,                                       !- Secondary Daylighting Control Name
  ,                                       !- Fraction of Zone Controlled by Secondary Daylighting Control
  ,                                       !- Illuminance Map Name
  {822daae8-025f-4e20-b1d4-968c766e1582}, !- Group Rendering Name
  {9916c016-09c9-4a68-9d08-4b0f6b269680}, !- Thermostat Name
  No;                                     !- Use Ideal Air Loads

OS:Node,
  {e0adcc7f-9fca-48f9-848a-6074e8f84c40}, !- Handle
  {ae70286a-37d7-48b6-9413-64b4ec163a8e}, !- Name
  {415934aa-9460-4252-856f-61dce2d23cff}, !- Inlet Port
  ;                                       !- Outlet Port

OS:Connection,
  {415934aa-9460-4252-856f-61dce2d23cff}, !- Handle
  {60730367-f788-4d8d-b962-ce7ddcbdca9e}, !- Name
  {fc18d254-bac1-4325-9ecc-3652c4d9e4f1}, !- Source Object
  11,                                     !- Outlet Port
  {e0adcc7f-9fca-48f9-848a-6074e8f84c40}, !- Target Object
  2;                                      !- Inlet Port

OS:PortList,
  {dbfbef85-490d-4fcb-9dde-e75ef676ff2f}, !- Handle
  {f17e4c56-48a5-4039-b799-a1f52516faae}, !- Name
  {fc18d254-bac1-4325-9ecc-3652c4d9e4f1}, !- HVAC Component
  {60a0a6d1-797d-4baa-a838-924410466786}; !- Port 1

OS:PortList,
  {6b581250-ce43-44cb-adc7-a24256c2349a}, !- Handle
  {a167e63c-55f1-47c9-95da-61aa341fb0b4}, !- Name
  {fc18d254-bac1-4325-9ecc-3652c4d9e4f1}, !- HVAC Component
  {3adbc116-76ad-4632-bd3b-bbd3026fc299}; !- Port 1

OS:Sizing:Zone,
  {7546fc63-9032-4087-a2c1-fb3df1b9e9ce}, !- Handle
  {fc18d254-bac1-4325-9ecc-3652c4d9e4f1}, !- Zone or ZoneList Name
  14,                                     !- Zone Cooling Design Supply Air Temperature {C}
  40,                                     !- Zone Heating Design Supply Air Temperature {C}
  0.0085,                                 !- Zone Cooling Design Supply Air Humidity Ratio {kg-H2O/kg-air}
  0.008,                                  !- Zone Heating Design Supply Air Humidity Ratio {kg-H2O/kg-air}
  ,                                       !- Zone Heating Sizing Factor
  ,                                       !- Zone Cooling Sizing Factor
  DesignDay,                              !- Cooling Design Air Flow Method
  ,                                       !- Cooling Design Air Flow Rate {m3/s}
  ,                                       !- Cooling Minimum Air Flow per Zone Floor Area {m3/s-m2}
  ,                                       !- Cooling Minimum Air Flow {m3/s}
  ,                                       !- Cooling Minimum Air Flow Fraction
  DesignDay,                              !- Heating Design Air Flow Method
  ,                                       !- Heating Design Air Flow Rate {m3/s}
  ,                                       !- Heating Maximum Air Flow per Zone Floor Area {m3/s-m2}
  ,                                       !- Heating Maximum Air Flow {m3/s}
  ,                                       !- Heating Maximum Air Flow Fraction
  ,                                       !- Design Zone Air Distribution Effectiveness in Cooling Mode
  ;                                       !- Design Zone Air Distribution Effectiveness in Heating Mode

OS:ZoneHVAC:EquipmentList,
  {d252ae67-4c2a-4cf3-b98e-56c81e29c8ef}, !- Handle
  {aa99bbd4-3a76-4611-8e73-343a91a3e288}, !- Name
  {fc18d254-bac1-4325-9ecc-3652c4d9e4f1}, !- Thermal Zone
  {e541da71-ece5-47de-a338-4215ef7da949}, !- Zone Equipment 1
  1,                                      !- Zone Equipment Cooling Sequence 1
  1;                                      !- Zone Equipment Heating or No-Load Sequence 1

OS:Space,
  {478b2a00-d16f-4c26-883c-409574e05cd7}, !- Handle
  Mech_ZN_1_FLR_1,                        !- Name
  {86fbf82a-0f6e-40a1-89e6-970b143fedfa}, !- Space Type Name
  ,                                       !- Default Construction Set Name
  ,                                       !- Default Schedule Set Name
  0,                                      !- Direction of Relative North {deg}
  79,                                     !- X Origin {m}
  66,                                     !- Y Origin {m}
  0,                                      !- Z Origin {m}
  {b4761232-4af5-4411-a42e-468e361fc7d8}, !- Building Story Name
  {fc18d254-bac1-4325-9ecc-3652c4d9e4f1}, !- Thermal Zone Name
  Yes,                                    !- Part of Total Floor Area
  ;                                       !- Design Specification Outdoor Air Object Name

OS:ThermostatSetpoint:DualSetpoint,
  {764a8bc1-d643-41a3-8bc9-5cef133bf798}, !- Handle
  {186de9c8-cb87-4b3c-a76a-af06b084dcd4}, !- Name
  {142c714f-7687-4458-a143-df6556acf0ee}, !- Heating Setpoint Temperature Schedule Name
  {f9695fa7-fce9-4d3b-89f4-2bfde0154ad0}; !- Cooling Setpoint Temperature Schedule Name

OS:Schedule:Compact,
  {214fad00-af41-4cd1-8ee8-7c642ffc832f}, !- Handle
  Kitchen_ZN_1_FLR_1_Case:1_WALKINFREEZER_WalkInStockingSched, !- Name
  ,                                       !- Schedule Type Limits Name
  Through: 12/31,                         !- Field 1
  For: Tuesday Friday,                    !- Field 2
  Until: 4:00,                            !- Field 3
  0.0,                                    !- Field 4
  Until: 5:00,                            !- Field 5
  725.0,                                  !- Field 6
  Until: 6:00,                            !- Field 7
  417.0,                                  !- Field 8
  Until: 7:00,                            !- Field 9
  290.0,                                  !- Field 10
  Until: 24:00,                           !- Field 11
  0.0,                                    !- Field 12
  For: AllOtherDays,                      !- Field 13
  Until: 4:00,                            !- Field 14
  0.0,                                    !- Field 15
  Until: 5:00,                            !- Field 16
  125.0,                                  !- Field 17
  Until: 6:00,                            !- Field 18
  117.0,                                  !- Field 19
  Until: 7:00,                            !- Field 20
  90.0,                                   !- Field 21
  Until: 19:00,                           !- Field 22
  0.0,                                    !- Field 23
  Until: 20:00,                           !- Field 24
  125.0,                                  !- Field 25
  Until: 21:00,                           !- Field 26
  117.0,                                  !- Field 27
  Until: 22:00,                           !- Field 28
  90.0,                                   !- Field 29
  Until: 24:00,                           !- Field 30
  0.0;                                    !- Field 31

OS:ScheduleTypeLimits,
  {af879d50-7b68-4d72-9fe7-b4c2c001b9b8}, !- Handle
  {7d7b02ca-0551-48e6-8b23-881a66092680}; !- Name

OS:Surface,
  {baa66bac-adab-45ff-97c8-6441d7234a60}, !- Handle
  Corner_Class_2_Pod_3_ZN_1_FLR_1_Wall_4, !- Name
  Wall,                                   !- Surface Type
  ,                                       !- Construction Name
  {caba93bb-2ced-41c8-a50d-9c6dac98c9f5}, !- Space Name
  Outdoors,                               !- Outside Boundary Condition
  ,                                       !- Outside Boundary Condition Object
  SunExposed,                             !- Sun Exposure
  WindExposed,                            !- Wind Exposure
  ,                                       !- View Factor to Ground
  ,                                       !- Number of Vertices
  0, 9, 4,                                !- X,Y,Z Vertex 1 {m}
  0, 9, 0,                                !- X,Y,Z Vertex 2 {m}
  0, 0, 0,                                !- X,Y,Z Vertex 3 {m}
  0, 0, 4;                                !- X,Y,Z Vertex 4 {m}

OS:Material,
  {a1573628-8880-419a-be49-4d2189d98cfc}, !- Handle
  Wood Siding,                            !- Name
  MediumSmooth,                           !- Roughness
  0.01,                                   !- Thickness {m}
  0.11,                                   !- Conductivity {W/m-K}
  544.62,                                 !- Density {kg/m3}
  1210,                                   !- Specific Heat {J/kg-K}
  0.9,                                    !- Thermal Absorptance
  0.78,                                   !- Solar Absorptance
  0.78;                                   !- Visible Absorptance

OS:Material,
  {8a51a6bb-3e16-4f20-b35a-82ac7bbbe5ad}, !- Handle
  Steel Frame NonRes Wall Insulation,     !- Name
  MediumRough,                            !- Roughness
  0.0870564552646045,                     !- Thickness {m}
  0.049,                                  !- Conductivity {W/m-K}
  265,                                    !- Density {kg/m3}
  836.8,                                  !- Specific Heat {J/kg-K}
  0.9,                                    !- Thermal Absorptance
  0.7,                                    !- Solar Absorptance
  0.7;                                    !- Visible Absorptance

OS:Material,
  {270aec35-72b7-422c-bc9f-9570975c1822}, !- Handle
  1/2IN Gypsum,                           !- Name
  Smooth,                                 !- Roughness
  0.0127,                                 !- Thickness {m}
  0.16,                                   !- Conductivity {W/m-K}
  784.9,                                  !- Density {kg/m3}
  830,                                    !- Specific Heat {J/kg-K}
  0.9,                                    !- Thermal Absorptance
  0.92,                                   !- Solar Absorptance
  0.92;                                   !- Visible Absorptance

OS:ThermalZone,
  {3dae6f52-2381-408d-845a-4b5a00cbf09c}, !- Handle
  Corner_Class_2_Pod_3_ZN_1_FLR_1 Thermal Zone, !- Name
  1,                                      !- Multiplier
  ,                                       !- Ceiling Height {m}
  ,                                       !- Volume {m3}
  ,                                       !- Floor Area {m2}
  ,                                       !- Zone Inside Convection Algorithm
  ,                                       !- Zone Outside Convection Algorithm
  ,                                       !- Zone Conditioning Equipment List Name
  {889e8418-cb40-4762-bba1-2c77fc72ee98}, !- Zone Air Inlet Port List
  {e4296866-8bed-454d-b32f-dd39578fd703}, !- Zone Air Exhaust Port List
  {c22012c0-4cbb-416c-86ce-789e6999bc23}, !- Zone Air Node Name
  {2960b720-c36f-4faf-9d52-6d99523e016b}, !- Zone Return Air Node Name
  ,                                       !- Primary Daylighting Control Name
  ,                                       !- Fraction of Zone Controlled by Primary Daylighting Control
  ,                                       !- Secondary Daylighting Control Name
  ,                                       !- Fraction of Zone Controlled by Secondary Daylighting Control
  ,                                       !- Illuminance Map Name
  {b7a69a6e-9210-4de1-b226-e7c63c98ab19}, !- Group Rendering Name
  {9f33572a-37c9-4a48-b591-0f792882cd8b}, !- Thermostat Name
  No;                                     !- Use Ideal Air Loads

OS:Node,
  {82d85cdd-ec0a-4efb-bd0a-fe49bff11e12}, !- Handle
  {6be8489c-bd8f-4506-9c8b-2c9c879c39f8}, !- Name
  {c22012c0-4cbb-416c-86ce-789e6999bc23}, !- Inlet Port
  ;                                       !- Outlet Port

OS:Connection,
  {c22012c0-4cbb-416c-86ce-789e6999bc23}, !- Handle
  {ab8de90b-f0ca-4af6-93e4-44b94e2e099e}, !- Name
  {3dae6f52-2381-408d-845a-4b5a00cbf09c}, !- Source Object
  11,                                     !- Outlet Port
  {82d85cdd-ec0a-4efb-bd0a-fe49bff11e12}, !- Target Object
  2;                                      !- Inlet Port

OS:PortList,
  {889e8418-cb40-4762-bba1-2c77fc72ee98}, !- Handle
  {99a88ca6-b0cd-4d64-88a4-1438eaa5a3b3}, !- Name
  {3dae6f52-2381-408d-845a-4b5a00cbf09c}, !- HVAC Component
  {3c075b73-30e7-4654-9e53-773d5292768e}; !- Port 1

OS:PortList,
  {e4296866-8bed-454d-b32f-dd39578fd703}, !- Handle
  {e2b5c06a-4779-4503-9cb6-894ca322c686}, !- Name
  {3dae6f52-2381-408d-845a-4b5a00cbf09c}, !- HVAC Component
  {859af6fc-cfc9-412b-91b3-ca7830237e0c}; !- Port 1

OS:Sizing:Zone,
  {cf026737-bf98-4532-849c-452eb2d35d11}, !- Handle
  {3dae6f52-2381-408d-845a-4b5a00cbf09c}, !- Zone or ZoneList Name
  14,                                     !- Zone Cooling Design Supply Air Temperature {C}
  40,                                     !- Zone Heating Design Supply Air Temperature {C}
  0.0085,                                 !- Zone Cooling Design Supply Air Humidity Ratio {kg-H2O/kg-air}
  0.008,                                  !- Zone Heating Design Supply Air Humidity Ratio {kg-H2O/kg-air}
  ,                                       !- Zone Heating Sizing Factor
  ,                                       !- Zone Cooling Sizing Factor
  DesignDay,                              !- Cooling Design Air Flow Method
  ,                                       !- Cooling Design Air Flow Rate {m3/s}
  ,                                       !- Cooling Minimum Air Flow per Zone Floor Area {m3/s-m2}
  ,                                       !- Cooling Minimum Air Flow {m3/s}
  ,                                       !- Cooling Minimum Air Flow Fraction
  DesignDay,                              !- Heating Design Air Flow Method
  ,                                       !- Heating Design Air Flow Rate {m3/s}
  ,                                       !- Heating Maximum Air Flow per Zone Floor Area {m3/s-m2}
  ,                                       !- Heating Maximum Air Flow {m3/s}
  ,                                       !- Heating Maximum Air Flow Fraction
  ,                                       !- Design Zone Air Distribution Effectiveness in Cooling Mode
  ;                                       !- Design Zone Air Distribution Effectiveness in Heating Mode

OS:ZoneHVAC:EquipmentList,
  {88804e52-47f8-47d2-ae5b-1b4c8b283302}, !- Handle
  {a5d37dc2-c2f8-476f-98b1-aa332e9f9b77}, !- Name
  {3dae6f52-2381-408d-845a-4b5a00cbf09c}, !- Thermal Zone
  {6e11b6a1-6f6d-4672-9624-ec7c214e9541}, !- Zone Equipment 1
  1,                                      !- Zone Equipment Cooling Sequence 1
  1;                                      !- Zone Equipment Heating or No-Load Sequence 1

OS:Space,
  {caba93bb-2ced-41c8-a50d-9c6dac98c9f5}, !- Handle
  Corner_Class_2_Pod_3_ZN_1_FLR_1,        !- Name
  ,                                       !- Space Type Name
  ,                                       !- Default Construction Set Name
  ,                                       !- Default Schedule Set Name
  0,                                      !- Direction of Relative North {deg}
  0,                                      !- X Origin {m}
  95,                                     !- Y Origin {m}
  0,                                      !- Z Origin {m}
  {b4761232-4af5-4411-a42e-468e361fc7d8}, !- Building Story Name
  {3dae6f52-2381-408d-845a-4b5a00cbf09c}, !- Thermal Zone Name
  Yes,                                    !- Part of Total Floor Area
  ;                                       !- Design Specification Outdoor Air Object Name

OS:ThermostatSetpoint:DualSetpoint,
  {cb3d00c3-70bf-4db0-b5f5-bafeda2615eb}, !- Handle
  {d0a55527-701c-4a1a-847a-6b49068e25ce}, !- Name
  {25b79992-0ebe-4406-95fa-8c33ab1b8912}, !- Heating Setpoint Temperature Schedule Name
  {7e58dd8d-0303-4c85-9dd0-6b7d6238e9a9}; !- Cooling Setpoint Temperature Schedule Name

OS:Schedule:Compact,
  {25b79992-0ebe-4406-95fa-8c33ab1b8912}, !- Handle
  HTGSETP_SCH,                            !- Name
  {b92399d1-e26a-4ded-8b97-1eb5b75dcac3}, !- Schedule Type Limits Name
  Through: 6/30,                          !- Field 1
  For: WinterDesignDay,                   !- Field 2
  Until: 24:00,                           !- Field 3
  21,                                     !- Field 4
  For: WeekEnds Holidays SummerDesignDay, !- Field 5
  Until: 24:00,                           !- Field 6
  16,                                     !- Field 7
  For: AllOtherDays,                      !- Field 8
  Until: 06:00,                           !- Field 9
  16,                                     !- Field 10
  Until: 21:00,                           !- Field 11
  21,                                     !- Field 12
  Until: 24:00,                           !- Field 13
  16,                                     !- Field 14
  Through: 9/1,                           !- Field 15
  For: WinterDesignDay,                   !- Field 16
  Until: 24:00,                           !- Field 17
  21,                                     !- Field 18
  For: WeekEnds Holidays SummerDesignDay, !- Field 19
  Until: 24:00,                           !- Field 20
  16,                                     !- Field 21
  For: AllOtherDays,                      !- Field 22
  Until: 07:00,                           !- Field 23
  16,                                     !- Field 24
  Until: 18:00,                           !- Field 25
  21,                                     !- Field 26
  Until: 24:00,                           !- Field 27
  16,                                     !- Field 28
  Through: 12/31,                         !- Field 29
  For: WinterDesignDay,                   !- Field 30
  Until: 24:00,                           !- Field 31
  21,                                     !- Field 32
  For: WeekEnds Holidays SummerDesignDay, !- Field 33
  Until: 24:00,                           !- Field 34
  16,                                     !- Field 35