
OS:Version,
  {573ac36e-50b5-4789-915c-4f8dcfff12af}, !- Handle
  2.8.0;                                  !- Version Identifier

OS:ClimateZones,
  {135edfab-17e7-40db-a436-27d385a8cd6d}, !- Handle
  ,                                       !- Active Institution
  ,                                       !- Active Year
  ASHRAE,                                 !- Climate Zone Institution Name 1
  ANSI/ASHRAE Standard 169,               !- Climate Zone Document Name 1
  2006,                                   !- Climate Zone Document Year 1
  3B,                                     !- Climate Zone Value 1
  CEC,                                    !- Climate Zone Institution Name 2
  California Climate Zone Descriptions,   !- Climate Zone Document Name 2
  1995,                                   !- Climate Zone Document Year 2
  ;                                       !- Climate Zone Value 2

OS:YearDescription,
  {513d8dda-86cb-442a-b01c-1f7f0e0ac70e}; !- Handle

OS:RadianceParameters,
  {270a96f1-3c86-4b75-a667-cdf22790e2c8}, !- Handle
  1,                                      !- Accumulated Rays per Record
  0,                                      !- Direct Threshold
  1,                                      !- Direct Certainty
  1,                                      !- Direct Jitter
  1,                                      !- Direct Pretest
  6,                                      !- Ambient Bounces VMX
  2,                                      !- Ambient Bounces DMX
  4050,                                   !- Ambient Divisions VMX
  512,                                    !- Ambient Divisions DMX
  256,                                    !- Ambient Supersamples
  0.001,                                  !- Limit Weight VMX
  0.001,                                  !- Limit Weight DMX
  500,                                    !- Klems Sampling Density
  146;                                    !- Sky Discretization Resolution

OS:SimulationControl,
  {2c487a4c-bac9-4ac5-b669-1e49d9da7c2b}; !- Handle

OS:Sizing:Parameters,
  {dde5af6f-7923-4600-a28a-7556673a0266}, !- Handle
  1.25,                                   !- Heating Sizing Factor
  1.15;                                   !- Cooling Sizing Factor

OS:ProgramControl,
  {05027a99-f2b3-4aeb-afc6-1425fbb4371d}; !- Handle

OS:Timestep,
  {4ebc9f1e-4707-402e-9844-67eb1ffbd522}, !- Handle
  6;                                      !- Number of Timesteps per Hour

OS:OutputControl:ReportingTolerances,
  {65797aa2-06a9-45fe-b69d-bc6e060399d3}; !- Handle

OS:ConvergenceLimits,
  {9fc11aba-8822-4f3d-970c-46391ba4040d}; !- Handle

OS:ShadowCalculation,
  {ca758bea-4416-4626-9bba-3d8795c79bd6}, !- Handle
  7,                                      !- Calculation Frequency
  15000;                                  !- Maximum Figures in Shadow Overlap Calculations

OS:SurfaceConvectionAlgorithm:Inside,
  {aaabfc36-718a-4ab0-b622-f186ebb45230}, !- Handle
  TARP;                                   !- Algorithm

OS:SurfaceConvectionAlgorithm:Outside,
  {9a0a9f6f-4bbd-4b12-a121-9492a1fcd7d6}, !- Handle
  DOE-2;                                  !- Algorithm

OS:HeatBalanceAlgorithm,
  {9d93e563-e1e0-46d7-9e39-d1c8aceb7212}, !- Handle
  ConductionTransferFunction,             !- Algorithm
  200;                                    !- Surface Temperature Upper Limit {C}

OS:ZoneAirHeatBalanceAlgorithm,
  {8520d93e-310f-4696-9bcd-36228bfdd743}, !- Handle
  AnalyticalSolution;                     !- Algorithm

OS:ZoneAirContaminantBalance,
  {eb5fc3ae-fb22-4160-8fcb-3e3b22b000d3}; !- Handle

OS:ZoneCapacitanceMultiplier:ResearchSpecial,
  {4020ce4f-5a7a-4849-8028-8305d7b751b1}, !- Handle
  ,                                       !- Temperature Capacity Multiplier
  ,                                       !- Humidity Capacity Multiplier
  ;                                       !- Carbon Dioxide Capacity Multiplier

OS:RunPeriod,
  {28df894d-6af9-4fb8-8f56-df1753344aa3}, !- Handle
  Run Period 1,                           !- Name
  1,                                      !- Begin Month
  1,                                      !- Begin Day of Month
  12,                                     !- End Month
  31,                                     !- End Day of Month
  ,                                       !- Use Weather File Holidays and Special Days
  ,                                       !- Use Weather File Daylight Saving Period
  ,                                       !- Apply Weekend Holiday Rule
  ,                                       !- Use Weather File Rain Indicators
  ,                                       !- Use Weather File Snow Indicators
  ;                                       !- Number of Times Runperiod to be Repeated

OS:Building,
  {bf305633-c5a1-4881-9edf-ca5e1a8e1274}, !- Handle
  RetailStripmall DOE Ref Pre-1980 3B,    !- Name
  ,                                       !- Building Sector Type
  ,                                       !- North Axis {deg}
  ,                                       !- Nominal Floor to Floor Height {m}
  {2252ac6a-ed7f-4606-b46e-ec0a60f61766}, !- Space Type Name
  {66199eb3-5b61-4f9b-8015-6246940b6361}, !- Default Construction Set Name
  ,                                       !- Default Schedule Set Name
  ,                                       !- Standards Number of Stories
  ,                                       !- Standards Number of Above Ground Stories
  ,                                       !- Standards Template
  StripMall;                              !- Standards Building Type

OS:SpaceType,
  {fb1966d7-f865-45f6-ab92-1eee4a8804c2}, !- Handle
  RetailStripmall Strip mall - type 1 - DOE Ref Pre-1980, !- Name
  ,                                       !- Default Construction Set Name
  {ffe8a9d5-242e-4801-a510-f018d9cd6677}, !- Default Schedule Set Name
  ,                                       !- Group Rendering Name
  {9677ce51-7b54-4b30-ae26-b1b90978e767}, !- Design Specification Outdoor Air Object Name
  ,                                       !- Standards Template
  RetailStripmall,                        !- Standards Building Type
  Strip mall - type 1;                    !- Standards Space Type

OS:DesignSpecification:OutdoorAir,
  {9677ce51-7b54-4b30-ae26-b1b90978e767}, !- Handle
  RetailStripmall Strip mall - type 1 Ventilation, !- Name
  ,                                       !- Outdoor Air Method
  0,                                      !- Outdoor Air Flow per Person {m3/s-person}
  0,                                      !- Outdoor Air Flow per Floor Area {m3/s-m2}
  ,                                       !- Outdoor Air Flow Rate {m3/s}
  0,                                      !- Outdoor Air Flow Air Changes per Hour {1/hr}
  ;                                       !- Outdoor Air Flow Rate Fraction Schedule Name

OS:DefaultScheduleSet,
  {ffe8a9d5-242e-4801-a510-f018d9cd6677}, !- Handle
  RetailStripmall Strip mall - type 1 Schedule Set, !- Name
  ,                                       !- Hours of Operation Schedule Name
  ,                                       !- Number of People Schedule Name
  ,                                       !- People Activity Level Schedule Name
  ,                                       !- Lighting Schedule Name
  ,                                       !- Electric Equipment Schedule Name
  ,                                       !- Gas Equipment Schedule Name
  ,                                       !- Hot Water Equipment Schedule Name
  ,                                       !- Infiltration Schedule Name
  ,                                       !- Steam Equipment Schedule Name
  ;                                       !- Other Equipment Schedule Name

OS:ThermostatSetpoint:DualSetpoint,
  {b8f2f5d6-5fc0-4c3d-9e94-9b2136e6cc21}, !- Handle
  RetailStripmall Strip mall - type 1 Thermostat; !- Name

OS:SpaceType,
  {77e424af-9098-4763-97f5-d77bb459b3c4}, !- Handle
  RetailStripmall Strip mall - type 2 - DOE Ref Pre-1980, !- Name
  ,                                       !- Default Construction Set Name
  {68e59674-d8aa-43d2-855f-1bd7f6a0d982}, !- Default Schedule Set Name
  ,                                       !- Group Rendering Name
  {623039cd-63ea-4244-8d80-9b6a95a06dce}, !- Design Specification Outdoor Air Object Name
  ,                                       !- Standards Template
  RetailStripmall,                        !- Standards Building Type
  Strip mall - type 2;                    !- Standards Space Type

OS:DesignSpecification:OutdoorAir,
  {623039cd-63ea-4244-8d80-9b6a95a06dce}, !- Handle
  RetailStripmall Strip mall - type 2 Ventilation, !- Name
  ,                                       !- Outdoor Air Method
  0,                                      !- Outdoor Air Flow per Person {m3/s-person}
  0,                                      !- Outdoor Air Flow per Floor Area {m3/s-m2}
  ,                                       !- Outdoor Air Flow Rate {m3/s}
  0,                                      !- Outdoor Air Flow Air Changes per Hour {1/hr}
  ;                                       !- Outdoor Air Flow Rate Fraction Schedule Name

OS:DefaultScheduleSet,
  {68e59674-d8aa-43d2-855f-1bd7f6a0d982}, !- Handle
  RetailStripmall Strip mall - type 2 Schedule Set, !- Name
  ,                                       !- Hours of Operation Schedule Name
  ,                                       !- Number of People Schedule Name
  ,                                       !- People Activity Level Schedule Name
  ,                                       !- Lighting Schedule Name
  ,                                       !- Electric Equipment Schedule Name
  ,                                       !- Gas Equipment Schedule Name
  ,                                       !- Hot Water Equipment Schedule Name
  ,                                       !- Infiltration Schedule Name
  ,                                       !- Steam Equipment Schedule Name
  ;                                       !- Other Equipment Schedule Name

OS:ThermostatSetpoint:DualSetpoint,
  {f883aa3d-ba09-40ed-9453-c5caf7a61e5d}, !- Handle
  RetailStripmall Strip mall - type 2 Thermostat; !- Name

OS:SpaceType,
  {2252ac6a-ed7f-4606-b46e-ec0a60f61766}, !- Handle
  RetailStripmall Strip mall - type 3 - DOE Ref Pre-1980, !- Name
  ,                                       !- Default Construction Set Name
  {2dccc3f0-b524-43e6-81f8-1b803be59858}, !- Default Schedule Set Name
  ,                                       !- Group Rendering Name
  {4cb7a1de-bb25-4b3b-b6cf-cdfc916ada0d}, !- Design Specification Outdoor Air Object Name
  ,                                       !- Standards Template
  RetailStripmall,                        !- Standards Building Type
  Strip mall - type 3;                    !- Standards Space Type

OS:DesignSpecification:OutdoorAir,
  {4cb7a1de-bb25-4b3b-b6cf-cdfc916ada0d}, !- Handle
  RetailStripmall Strip mall - type 3 Ventilation, !- Name
  ,                                       !- Outdoor Air Method
  0,                                      !- Outdoor Air Flow per Person {m3/s-person}
  0,                                      !- Outdoor Air Flow per Floor Area {m3/s-m2}
  ,                                       !- Outdoor Air Flow Rate {m3/s}
  0,                                      !- Outdoor Air Flow Air Changes per Hour {1/hr}
  ;                                       !- Outdoor Air Flow Rate Fraction Schedule Name

OS:DefaultScheduleSet,
  {2dccc3f0-b524-43e6-81f8-1b803be59858}, !- Handle
  RetailStripmall Strip mall - type 3 Schedule Set, !- Name
  ,                                       !- Hours of Operation Schedule Name
  ,                                       !- Number of People Schedule Name
  ,                                       !- People Activity Level Schedule Name
  ,                                       !- Lighting Schedule Name
  ,                                       !- Electric Equipment Schedule Name
  ,                                       !- Gas Equipment Schedule Name
  ,                                       !- Hot Water Equipment Schedule Name
  ,                                       !- Infiltration Schedule Name
  ,                                       !- Steam Equipment Schedule Name
  ;                                       !- Other Equipment Schedule Name

OS:ThermostatSetpoint:DualSetpoint,
  {065fb7bb-bce6-436a-bc7a-1d7b39b61630}, !- Handle
  RetailStripmall Strip mall - type 3 Thermostat; !- Name

OS:DefaultConstructionSet,
  {66199eb3-5b61-4f9b-8015-6246940b6361}, !- Handle
  DOE Ref Pre-1980 - StMall - ASHRAE 169-2006-3B, !- Name
  {d1512718-a731-421f-86b0-9bc2873e3d55}, !- Default Exterior Surface Constructions Name
  {b6a35be5-375e-4afb-b273-30ad8b3ea2ea}, !- Default Interior Surface Constructions Name
  {56ae06c8-b1b6-424b-b1d9-4da1f238bacd}, !- Default Ground Contact Surface Constructions Name
  {31e3460e-64cb-4cec-9e9d-cdadb96735c9}, !- Default Exterior SubSurface Constructions Name
  {773c8fdb-863a-4262-b76b-44cec62fead8}, !- Default Interior SubSurface Constructions Name
  {21ba338b-cf31-4d6c-ba6a-be48acc33263}, !- Interior Partition Construction Name
  ,                                       !- Space Shading Construction Name
  ,                                       !- Building Shading Construction Name
  ,                                       !- Site Shading Construction Name
  ;                                       !- Adiabatic Surface Construction Name

OS:DefaultSurfaceConstructions,
  {d1512718-a731-421f-86b0-9bc2873e3d55}, !- Handle
  Default Surface Constructions 1,        !- Name
  {38827d96-ff01-44e2-b519-6ef5477496b5}, !- Floor Construction Name
  {b2748952-5b1e-4fa6-b97d-bc1296766992}, !- Wall Construction Name
  {117bc1d0-de94-4d29-a6ad-48d559f9465b}; !- Roof Ceiling Construction Name

OS:Construction,
  {38827d96-ff01-44e2-b519-6ef5477496b5}, !- Handle
  Typical Insulated Exterior Mass Floor,  !- Name
  ,                                       !- Surface Rendering Name
  {5004ed91-5628-4c1b-b8e5-44b9521c8724}, !- Layer 1
  {cdee1bc5-c245-4acc-84fd-61e421f5dc24}; !- Layer 2

OS:StandardsInformation:Construction,
  {cd6a1b15-7cbf-4bfb-b79d-aa534fefdf68}, !- Handle
  {38827d96-ff01-44e2-b519-6ef5477496b5}, !- Construction Name
  ExteriorFloor,                          !- Intended Surface Type
  Mass;                                   !- Standards Construction Type

OS:Material:NoMass,
  {2f64f20b-0f67-4f3d-860b-dc49df4d0cf6}, !- Handle
  Typical Insulation R-2.17,              !- Name
  Smooth,                                 !- Roughness
  0.381975016884895,                      !- Thermal Resistance {m2-K/W}
  0.9,                                    !- Thermal Absorptance
  0.7,                                    !- Solar Absorptance
  0.7;                                    !- Visible Absorptance

OS:Material,
  {5004ed91-5628-4c1b-b8e5-44b9521c8724}, !- Handle
  4 in. Normalweight Concrete Floor,      !- Name
  MediumRough,                            !- Roughness
  0.1016,                                 !- Thickness {m}
  2.31,                                   !- Conductivity {W/m-K}
  2321.99999999999,                       !- Density {kg/m3}
  831.999999999997,                       !- Specific Heat {J/kg-K}
  0.9,                                    !- Thermal Absorptance
  0.7,                                    !- Solar Absorptance
  0.7;                                    !- Visible Absorptance

OS:Material:NoMass,
  {cdee1bc5-c245-4acc-84fd-61e421f5dc24}, !- Handle
  Typical Carpet Pad,                     !- Name
  Smooth,                                 !- Roughness
  0.216479986995276,                      !- Thermal Resistance {m2-K/W}
  0.9,                                    !- Thermal Absorptance
  0.7,                                    !- Solar Absorptance
  0.8;                                    !- Visible Absorptance

OS:Construction,
  {b2748952-5b1e-4fa6-b97d-bc1296766992}, !- Handle
  Typical Insulated Steel Framed Exterior Wall R-4.35, !- Name
  ,                                       !- Surface Rendering Name
  {e03f59d6-6f2c-47b5-8b0d-5a097887f1a8}, !- Layer 1
  {f3d92572-866a-4244-b252-76defa385747}, !- Layer 2
  {2f64f20b-0f67-4f3d-860b-dc49df4d0cf6}, !- Layer 3
  {f3d92572-866a-4244-b252-76defa385747}; !- Layer 4

OS:StandardsInformation:Construction,
  {2e8542c6-b08c-4bc2-9007-bda3962c8ace}, !- Handle
  {b2748952-5b1e-4fa6-b97d-bc1296766992}, !- Construction Name
  ExteriorWall,                           !- Intended Surface Type
  SteelFramed;                            !- Standards Construction Type

OS:Material,
  {e03f59d6-6f2c-47b5-8b0d-5a097887f1a8}, !- Handle
  25mm Stucco,                            !- Name
  Smooth,                                 !- Roughness
  0.0254,                                 !- Thickness {m}
  0.719999999999999,                      !- Conductivity {W/m-K}
  1855.99999999999,                       !- Density {kg/m3}
  839.999999999997,                       !- Specific Heat {J/kg-K}
  0.9,                                    !- Thermal Absorptance
  0.7,                                    !- Solar Absorptance
  0.7;                                    !- Visible Absorptance

OS:Material,
  {f3d92572-866a-4244-b252-76defa385747}, !- Handle
  5/8 in. Gypsum Board,                   !- Name
  MediumSmooth,                           !- Roughness
  0.0159,                                 !- Thickness {m}
  0.159999999999999,                      !- Conductivity {W/m-K}
  799.999999999999,                       !- Density {kg/m3}
  1090,                                   !- Specific Heat {J/kg-K}
  0.9,                                    !- Thermal Absorptance
  0.7,                                    !- Solar Absorptance
  0.7;                                    !- Visible Absorptance

OS:Construction,
  {117bc1d0-de94-4d29-a6ad-48d559f9465b}, !- Handle
  Typical IEAD Roof R-10.0,               !- Name
  ,                                       !- Surface Rendering Name
  {301203f4-2fbf-4116-bda1-86b53071970e}, !- Layer 1
  {6b4490a7-3a77-4602-836a-4e2c06aed1b8}, !- Layer 2
  {6516d863-115d-4656-96f9-67a5b9540c97}; !- Layer 3

OS:StandardsInformation:Construction,
  {bb3e1ae0-cf1f-4de6-895e-1214f1e5a6c4}, !- Handle
  {117bc1d0-de94-4d29-a6ad-48d559f9465b}, !- Construction Name
  ExteriorRoof,                           !- Intended Surface Type
  IEAD;                                   !- Standards Construction Type

OS:Material,
  {301203f4-2fbf-4116-bda1-86b53071970e}, !- Handle
  Roof Membrane,                          !- Name
  VeryRough,                              !- Roughness
  0.0095,                                 !- Thickness {m}
  0.16,                                   !- Conductivity {W/m-K}
  1121.29,                                !- Density {kg/m3}
  1460,                                   !- Specific Heat {J/kg-K}
  0.9,                                    !- Thermal Absorptance
  0.7,                                    !- Solar Absorptance
  0.7;                                    !- Visible Absorptance

OS:Material:NoMass,
  {6b4490a7-3a77-4602-836a-4e2c06aed1b8}, !- Handle
  Typical Insulation R-8.88,              !- Name
  Smooth,                                 !- Roughness
  1.56434322570634,                       !- Thermal Resistance {m2-K/W}
  0.9,                                    !- Thermal Absorptance
  0.7,                                    !- Solar Absorptance
  0.7;                                    !- Visible Absorptance

OS:Material,
  {6516d863-115d-4656-96f9-67a5b9540c97}, !- Handle
  Metal Roof Surface,                     !- Name
  Smooth,                                 !- Roughness
  0.000799999999999998,                   !- Thickness {m}
  45.2799999999999,                       !- Conductivity {W/m-K}
  7823.99999999999,                       !- Density {kg/m3}
  499.999999999996,                       !- Specific Heat {J/kg-K}
  0.9,                                    !- Thermal Absorptance
  0.7,                                    !- Solar Absorptance
  0.7;                                    !- Visible Absorptance

OS:DefaultSurfaceConstructions,
  {b6a35be5-375e-4afb-b273-30ad8b3ea2ea}, !- Handle
  Default Surface Constructions 2,        !- Name
  {6c9b6d75-7de3-47bb-82dd-d3102d37f5a0}, !- Floor Construction Name
  {837a33a2-94ee-4c42-a3e3-c3c1008f03c4}, !- Wall Construction Name
  {97f82a69-2499-4495-8504-6ab1ae182bdc}; !- Roof Ceiling Construction Name

OS:Construction,
  {6c9b6d75-7de3-47bb-82dd-d3102d37f5a0}, !- Handle
  Typical Interior Floor,                 !- Name
  ,                                       !- Surface Rendering Name
  {680f57eb-72b5-4b9f-a61b-cb41501e65a4}, !- Layer 1
  {3db2e5c9-16e7-40fe-a9d5-78d91473b8a6}; !- Layer 2

OS:StandardsInformation:Construction,
  {45fd3ea8-7d08-4ff7-9d6f-10809cc83539}, !- Handle
  {6c9b6d75-7de3-47bb-82dd-d3102d37f5a0}, !- Construction Name
  InteriorFloor,                          !- Intended Surface Type
  ;                                       !- Standards Construction Type

OS:Material,
  {680f57eb-72b5-4b9f-a61b-cb41501e65a4}, !- Handle
  100mm Normalweight concrete floor,      !- Name
  MediumRough,                            !- Roughness
  0.1016,                                 !- Thickness {m}
  2.31044676686054,                       !- Conductivity {W/m-K}
  2322.00146636525,                       !- Density {kg/m3}
  832.5567858096,                         !- Specific Heat {J/kg-K}
  ,                                       !- Thermal Absorptance
  0,                                      !- Solar Absorptance
  0;                                      !- Visible Absorptance

OS:Material:NoMass,
  {3db2e5c9-16e7-40fe-a9d5-78d91473b8a6}, !- Handle
  CP02 CARPET PAD,                        !- Name
  Smooth,                                 !- Roughness
  0.216479986995276,                      !- Thermal Resistance {m2-K/W}
  0.9,                                    !- Thermal Absorptance
  0.7,                                    !- Solar Absorptance
  0.8;                                    !- Visible Absorptance

OS:Construction,
  {837a33a2-94ee-4c42-a3e3-c3c1008f03c4}, !- Handle
  Typical Interior Wall,                  !- Name
  ,                                       !- Surface Rendering Name
  {87309989-0563-434d-b019-3dc7ab2b8564}, !- Layer 1
  {87309989-0563-434d-b019-3dc7ab2b8564}; !- Layer 2

OS:StandardsInformation:Construction,
  {6925b05f-545a-4289-9834-b0304f8fd6de}, !- Handle
  {837a33a2-94ee-4c42-a3e3-c3c1008f03c4}, !- Construction Name
  InteriorWall,                           !- Intended Surface Type
  ;                                       !- Standards Construction Type

OS:Material,
  {87309989-0563-434d-b019-3dc7ab2b8564}, !- Handle
  G01 13mm gypsum board,                  !- Name
  Smooth,                                 !- Roughness
  0.0127,                                 !- Thickness {m}
  0.160030944416258,                      !- Conductivity {W/m-K}
  800.000505207667,                       !- Density {kg/m3}
  1090.7294438736,                        !- Specific Heat {J/kg-K}
  0.9,                                    !- Thermal Absorptance
  0.7,                                    !- Solar Absorptance
  0.5;                                    !- Visible Absorptance

OS:Construction,
  {97f82a69-2499-4495-8504-6ab1ae182bdc}, !- Handle
  Typical Interior Ceiling,               !- Name
  ,                                       !- Surface Rendering Name
  {3db2e5c9-16e7-40fe-a9d5-78d91473b8a6}, !- Layer 1
  {680f57eb-72b5-4b9f-a61b-cb41501e65a4}; !- Layer 2

OS:StandardsInformation:Construction,
  {14bf46e0-7cea-4b63-824a-84b1b9abce49}, !- Handle
  {97f82a69-2499-4495-8504-6ab1ae182bdc}, !- Construction Name
  InteriorCeiling,                        !- Intended Surface Type
  ;                                       !- Standards Construction Type

OS:DefaultSurfaceConstructions,
  {56ae06c8-b1b6-424b-b1d9-4da1f238bacd}, !- Handle
  Default Surface Constructions 3,        !- Name
  {13315208-9692-4090-b08b-614bc98cd8e9}, !- Floor Construction Name
  {23593f4f-aba5-417d-a480-2146c82f3617}, !- Wall Construction Name
  ;                                       !- Roof Ceiling Construction Name

OS:Construction,
  {13315208-9692-4090-b08b-614bc98cd8e9}, !- Handle
  ext-slab,                               !- Name
  ,                                       !- Surface Rendering Name
  {fd1ab8af-9405-425e-aef9-b763063d78ab}; !- Layer 1

OS:StandardsInformation:Construction,
  {5a789e95-0950-4bfc-8d30-34b0d7afaa18}, !- Handle
  {13315208-9692-4090-b08b-614bc98cd8e9}, !- Construction Name
  GroundContactFloor,                     !- Intended Surface Type
  Mass;                                   !- Standards Construction Type

OS:Material,
  {fd1ab8af-9405-425e-aef9-b763063d78ab}, !- Handle
  6 in. Normalweight Concrete Floor,      !- Name
  MediumRough,                            !- Roughness
  0.1524,                                 !- Thickness {m}
  2.31,                                   !- Conductivity {W/m-K}
  2321.99999999999,                       !- Density {kg/m3}
  831.999999999997,                       !- Specific Heat {J/kg-K}
  0.9,                                    !- Thermal Absorptance
  0.7,                                    !- Solar Absorptance
  0.7;                                    !- Visible Absorptance

OS:Construction,
  {23593f4f-aba5-417d-a480-2146c82f3617}, !- Handle
  Typical Insulated Basement Mass Wall,   !- Name
  ,                                       !- Surface Rendering Name
  {5886d84d-2c90-4e40-a704-743b95439ad6}; !- Layer 1

OS:StandardsInformation:Construction,
  {a428a1af-ad19-4313-9f03-37e7092f86ba}, !- Handle
  {23593f4f-aba5-417d-a480-2146c82f3617}, !- Construction Name
  GroundContactWall,                      !- Intended Surface Type
  Mass;                                   !- Standards Construction Type

OS:Material:NoMass,
  {2b9e712d-0477-4ec4-8f5d-25acc92adb54}, !- Handle
  Typical Insulation,                     !- Name
  Smooth,                                 !- Roughness
  0.0282222222222221,                     !- Thermal Resistance {m2-K/W}
  0.9,                                    !- Thermal Absorptance
  0.7,                                    !- Solar Absorptance
  0.7;                                    !- Visible Absorptance

OS:Material,
  {5886d84d-2c90-4e40-a704-743b95439ad6}, !- Handle
  8 in. Concrete Block Basement Wall,     !- Name
  MediumRough,                            !- Roughness
  0.2032,                                 !- Thickness {m}
  1.326,                                  !- Conductivity {W/m-K}
  1841.99999999999,                       !- Density {kg/m3}
  911.999999999999,                       !- Specific Heat {J/kg-K}
  0.9,                                    !- Thermal Absorptance
  0.7,                                    !- Solar Absorptance
  0.7;                                    !- Visible Absorptance

OS:DefaultSubSurfaceConstructions,
  {31e3460e-64cb-4cec-9e9d-cdadb96735c9}, !- Handle
  Default Sub Surface Constructions 1,    !- Name
  {b7620c62-b24a-41b0-8d23-4f9e9fbaa204}, !- Fixed Window Construction Name
  {7c08ef0a-792b-42de-93a6-b1157c2a3eb2}, !- Operable Window Construction Name
  {3e45c112-9584-4b74-9501-9f198918819e}, !- Door Construction Name
  {9d888eef-7d51-40f4-b1a7-7beb734f0ed0}, !- Glass Door Construction Name
  {c63df689-3cee-4eed-808c-2f7c72d5aadb}, !- Overhead Door Construction Name
  ,                                       !- Skylight Construction Name
  {5b99e9ae-3d13-404e-8706-a56452a1b117}, !- Tubular Daylight Dome Construction Name
  {5b99e9ae-3d13-404e-8706-a56452a1b117}; !- Tubular Daylight Diffuser Construction Name

OS:Construction,
  {b7620c62-b24a-41b0-8d23-4f9e9fbaa204}, !- Handle
  U 1.22 SHGC 0.54 Simple Glazing Window SHGC 0.54, !- Name
  ,                                       !- Surface Rendering Name
  {32965870-9e72-4ec1-898d-e9ea190ff031}; !- Layer 1

OS:StandardsInformation:Construction,
  {f63968b0-a119-4566-92ca-257c72ba677a}, !- Handle
  {b7620c62-b24a-41b0-8d23-4f9e9fbaa204}, !- Construction Name
  ExteriorWindow,                         !- Intended Surface Type
  Metal framing (all other),              !- Standards Construction Type
  ,                                       !- Perturbable Layer
  ,                                       !- Perturbable Layer Type
  ,                                       !- Other Perturbable Layer Type
  ,                                       !- Construction Standard
  ,                                       !- Construction Standard Source
  ,                                       !- Fenestration Type
  ,                                       !- Fenestration Assembly Context
  ,                                       !- Fenestration Number of Panes
  Metal Framing;                          !- Fenestration Frame Type

OS:WindowMaterial:SimpleGlazingSystem,
  {32965870-9e72-4ec1-898d-e9ea190ff031}, !- Handle
  U 1.22 SHGC 0.54 Simple Glazing SHGC 0.54, !- Name
  6.92748127615845,                       !- U-Factor {W/m2-K}
  0.54,                                   !- Solar Heat Gain Coefficient
  0.38;                                   !- Visible Transmittance

OS:Construction,
  {7c08ef0a-792b-42de-93a6-b1157c2a3eb2}, !- Handle
  U 1.22 SHGC 0.54 Simple Glazing Window SHGC 0.54 1, !- Name
  ,                                       !- Surface Rendering Name
  {577ae40b-95b1-493b-81ec-757551172841}; !- Layer 1

OS:StandardsInformation:Construction,
  {afedd67d-73d8-4523-a3ee-3a75a5fa7f04}, !- Handle
  {7c08ef0a-792b-42de-93a6-b1157c2a3eb2}, !- Construction Name
  ExteriorWindow,                         !- Intended Surface Type
  Metal framing (all other),              !- Standards Construction Type
  ,                                       !- Perturbable Layer