
OS:Version,
  {6e3fff36-bbf1-45ec-a859-4b2ae4604799}, !- Handle
  2.4.0;                                  !- Version Identifier

OS:Site,
  {01cc3407-f93e-42b7-b65e-ad01e9e979ff}, !- Handle
  Aurora Buckley Field Angb_CO_USA,       !- Name
  39.72,                                  !- Latitude {deg}
  -104.75,                                !- Longitude {deg}
  -7,                                     !- Time Zone {hr}
  1726,                                   !- Elevation {m}
  ;                                       !- Terrain

OS:YearDescription,
  {00fee1a4-be4b-4ce9-9ba5-6491f1afab4f}; !- Handle

OS:ClimateZones,
  {53508584-c8ad-4b20-9d38-c959572c9bfa}, !- Handle
  ,                                       !- Active Institution
  ,                                       !- Active Year
  ,                                       !- Climate Zone Institution Name 1
  ,                                       !- Climate Zone Document Name 1
  ,                                       !- Climate Zone Document Year 1
  5B,                                     !- Climate Zone Value 1
  CEC,                                    !- Climate Zone Institution Name 2
  California Climate Zone Descriptions,   !- Climate Zone Document Name 2
  1995,                                   !- Climate Zone Document Year 2
  ;                                       !- Climate Zone Value 2

OS:Facility,
  {00f9143e-6730-4539-913f-1e8347456ddf}; !- Handle

OS:SimulationControl,
  {241286c0-3c4f-49b4-847b-660008bb12cc}, !- Handle
  ,                                       !- Do Zone Sizing Calculation
  ,                                       !- Do System Sizing Calculation
  ,                                       !- Do Plant Sizing Calculation
  No,                                     !- Run Simulation for Sizing Periods
  Yes;                                    !- Run Simulation for Weather File Run Periods

OS:Sizing:Parameters,
  {fdd4e1f6-0a0f-43e8-9f10-c7e611d1dd43}, !- Handle
  1.25,                                   !- Heating Sizing Factor
  1.15;                                   !- Cooling Sizing Factor

OS:Timestep,
  {af6551bd-3e45-40c9-aa11-b97e2415c329}, !- Handle
  6;                                      !- Number of Timesteps per Hour

OS:ShadowCalculation,
  {a2e2a0ce-9cc8-4d76-a861-971f26facbca}, !- Handle
  20,                                     !- Calculation Frequency
  15000;                                  !- Maximum Figures in Shadow Overlap Calculations

OS:HeatBalanceAlgorithm,
  {55ed9902-9d7d-4712-9fdb-fd509fbe4b3b}, !- Handle
  ConductionTransferFunction,             !- Algorithm
  200;                                    !- Surface Temperature Upper Limit {C}

OS:RunPeriod,
  {13faa16a-fd08-4b71-9849-41475056d961}, !- Handle
  Run Period 1,                           !- Name
  1,                                      !- Begin Month
  1,                                      !- Begin Day of Month
  12,                                     !- End Month
  31,                                     !- End Day of Month
  ,                                       !- Use Weather File Holidays and Special Days
  ,                                       !- Use Weather File Daylight Saving Period
  ,                                       !- Apply Weekend Holiday Rule
  ,                                       !- Use Weather File Rain Indicators
  ,                                       !- Use Weather File Snow Indicators
  ;                                       !- Number of Times Runperiod to be Repeated

OS:LifeCycleCost:Parameters,
  {bf733bc5-1d5c-44c1-82f8-3cf94fb943d3}, !- Handle
  ,                                       !- Analysis Type
  ,                                       !- Discounting Convention
  ,                                       !- Inflation Approach
  ,                                       !- Real Discount Rate
  ,                                       !- Nominal Discount Rate
  ,                                       !- Inflation
  ,                                       !- Base Date Month
  ,                                       !- Base Date Year
  ,                                       !- Service Date Month
  ,                                       !- Service Date Year
  ;                                       !- Length of Study Period in Years

OS:WeatherFile,
  {bc7b7517-a00d-49e2-b909-5e5eae0436d3}, !- Handle
  Aurora Buckley Field Angb,              !- City
  CO,                                     !- State Province Region
  USA,                                    !- Country
  TMY3,                                   !- Data Source
  724695,                                 !- WMO Number
  39.72,                                  !- Latitude {deg}
  -104.75,                                !- Longitude {deg}
  -7,                                     !- Time Zone {hr}
  1726,                                   !- Elevation {m}
  file:////Users/dgoldwas/Documents/GitHub/Personal/PAT_projects/PAT_Basic_Model_Articulation/temp_data/analysis_2bf519d3-b4a4-48ff-b4df-5617d7ba919f/weather/USA_CO_Aurora-Buckley.Field.ANGB.724695_TMY3.epw, !- Url
  288AE598;                               !- Checksum

OS:Site:WaterMainsTemperature,
  {524d3a9e-daa3-42df-a65d-f83a8b901040}, !- Handle
  Correlation,                            !- Calculation Method
  ,                                       !- Temperature Schedule Name
  9.95,                                   !- Annual Average Outdoor Air Temperature {C}
  23.7;                                   !- Maximum Difference In Monthly Average Outdoor Air Temperatures {deltaC}

OS:SizingPeriod:DesignDay,
  {f3a8d4dc-bdf7-4853-b331-81fb03aedfe3}, !- Handle
  Aurora Buckley Field Angb Ann Clg .4% Condns DB=>MWB, !- Name
  33.9,                                   !- Maximum Dry-Bulb Temperature {C}
  14.8,                                   !- Daily Dry-Bulb Temperature Range {deltaC}
  15,                                     !- Humidity Indicating Conditions at Maximum Dry-Bulb
  82237,                                  !- Barometric Pressure {Pa}
  3.6,                                    !- Wind Speed {m/s}
  30,                                     !- Wind Direction {deg}
  0,                                      !- Sky Clearness
  0,                                      !- Rain Indicator
  0,                                      !- Snow Indicator
  21,                                     !- Day of Month
  7,                                      !- Month
  SummerDesignDay,                        !- Day Type
  0,                                      !- Daylight Saving Time Indicator
  Wetbulb,                                !- Humidity Indicating Type
  ,                                       !- Humidity Indicating Day Schedule Name
  DefaultMultipliers,                     !- Dry-Bulb Temperature Range Modifier Type
  ,                                       !- Dry-Bulb Temperature Range Modifier Schedule Name
  ASHRAETau,                              !- Solar Model Indicator
  ,                                       !- Beam Solar Day Schedule Name
  ,                                       !- Diffuse Solar Day Schedule Name
  0.423,                                  !- ASHRAE Taub {dimensionless}
  2.02;                                   !- ASHRAE Taud {dimensionless}

OS:SizingPeriod:DesignDay,
  {f4a62e91-bff3-4ad1-97f1-b8b02f286822}, !- Handle
  Aurora Buckley Field Angb Ann Clg .4% Condns WB=>MDB, !- Name
  26.3,                                   !- Maximum Dry-Bulb Temperature {C}
  14.8,                                   !- Daily Dry-Bulb Temperature Range {deltaC}
  17.9,                                   !- Humidity Indicating Conditions at Maximum Dry-Bulb
  82237,                                  !- Barometric Pressure {Pa}
  3.6,                                    !- Wind Speed {m/s}
  30,                                     !- Wind Direction {deg}
  0,                                      !- Sky Clearness
  0,                                      !- Rain Indicator
  0,                                      !- Snow Indicator
  21,                                     !- Day of Month
  7,                                      !- Month
  SummerDesignDay,                        !- Day Type
  0,                                      !- Daylight Saving Time Indicator
  Wetbulb,                                !- Humidity Indicating Type
  ,                                       !- Humidity Indicating Day Schedule Name
  DefaultMultipliers,                     !- Dry-Bulb Temperature Range Modifier Type
  ,                                       !- Dry-Bulb Temperature Range Modifier Schedule Name
  ASHRAETau,                              !- Solar Model Indicator
  ,                                       !- Beam Solar Day Schedule Name
  ,                                       !- Diffuse Solar Day Schedule Name
  0.423,                                  !- ASHRAE Taub {dimensionless}
  2.02;                                   !- ASHRAE Taud {dimensionless}

OS:SizingPeriod:DesignDay,
  {08f565b5-f2aa-4d05-ad9f-50171bd8f64c}, !- Handle
  Aurora Buckley Field Angb Ann Htg 99.6% Condns DB, !- Name
  -17.9,                                  !- Maximum Dry-Bulb Temperature {C}
  0,                                      !- Daily Dry-Bulb Temperature Range {deltaC}
  -17.9,                                  !- Humidity Indicating Conditions at Maximum Dry-Bulb
  82237,                                  !- Barometric Pressure {Pa}
  2.5,                                    !- Wind Speed {m/s}
  180,                                    !- Wind Direction {deg}
  0,                                      !- Sky Clearness
  0,                                      !- Rain Indicator
  0,                                      !- Snow Indicator
  21,                                     !- Day of Month
  12,                                     !- Month
  WinterDesignDay,                        !- Day Type
  0,                                      !- Daylight Saving Time Indicator
  Wetbulb,                                !- Humidity Indicating Type
  ,                                       !- Humidity Indicating Day Schedule Name
  DefaultMultipliers,                     !- Dry-Bulb Temperature Range Modifier Type
  ,                                       !- Dry-Bulb Temperature Range Modifier Schedule Name
  ASHRAEClearSky;                         !- Solar Model Indicator

OS:SpaceType,
  {2ba98b71-73fd-4eea-8c27-bfc04c228647}, !- Handle
  Office WholeBuilding - Md Office - 90.1-2004, !- Name
  ,                                       !- Default Construction Set Name
  {1c8f831e-c3d3-4155-b85a-c16f9ae5cc0f}, !- Default Schedule Set Name
  {0514a38b-ee2e-41a4-a0f7-5cadab65dbd9}, !- Group Rendering Name
  {0f5377c6-e9f0-4ff7-a980-d75fd0774332}, !- Design Specification Outdoor Air Object Name
  Office,                                 !- Standards Building Type
  WholeBuilding - Md Office;              !- Standards Space Type

OS:Rendering:Color,
  {0514a38b-ee2e-41a4-a0f7-5cadab65dbd9}, !- Handle
  Rendering Color 1,                      !- Name
  120,                                    !- Rendering Red Value
  230,                                    !- Rendering Green Value
  199;                                    !- Rendering Blue Value

OS:Building,
  {23059342-4184-4aeb-bc2e-7d5969190681}, !- Handle
  90.1-2004|MediumOffice,                 !- Name
  ,                                       !- Building Sector Type
  ,                                       !- North Axis {deg}
  ,                                       !- Nominal Floor to Floor Height {m}
  ,                                       !- Space Type Name
  {2c2f06dc-44b2-41d2-b9d0-28d4355f313b}, !- Default Construction Set Name
  ,                                       !- Default Schedule Set Name
  ,                                       !- Standards Number of Stories
  ,                                       !- Standards Number of Above Ground Stories
  Office;                                 !- Standards Building Type

OS:BuildingStory,
  {d0dcb71e-2833-489c-8641-3d98e407ad13}, !- Handle
  Story Ground,                           !- Name
  0,                                      !- Nominal Z Coordinate {m}
  3.9624,                                 !- Nominal Floor to Floor Height {m}
  ,                                       !- Default Construction Set Name
  ,                                       !- Default Schedule Set Name
  {5ae7acce-04ca-43eb-8e2e-adb930aa3a01}; !- Group Rendering Name

OS:Space,
  {131e927f-a7cb-4757-bc81-678fce95d9ac}, !- Handle
  Office WholeBuilding - Md Office A end_a - Story Ground, !- Name
  {2ba98b71-73fd-4eea-8c27-bfc04c228647}, !- Space Type Name
  ,                                       !- Default Construction Set Name
  ,                                       !- Default Schedule Set Name
  -0,                                     !- Direction of Relative North {deg}
  -15.24,                                 !- X Origin {m}
  -10.16,                                 !- Y Origin {m}
  0,                                      !- Z Origin {m}
  {d0dcb71e-2833-489c-8641-3d98e407ad13}, !- Building Story Name
  {5a67dc62-6ae8-4f33-a406-83fd5bc6e65a}; !- Thermal Zone Name

OS:Surface,
  {d07fc40f-f71a-4880-9258-658d4d07dd55}, !- Handle
  Surface 1,                              !- Name
  Floor,                                  !- Surface Type
  ,                                       !- Construction Name
  {131e927f-a7cb-4757-bc81-678fce95d9ac}, !- Space Name
  Ground,                                 !- Outside Boundary Condition
  ,                                       !- Outside Boundary Condition Object
  NoSun,                                  !- Sun Exposure
  NoWind,                                 !- Wind Exposure
  ,                                       !- View Factor to Ground
  ,                                       !- Number of Vertices
  0, 0, 0,                                !- X,Y,Z Vertex 1 {m}
  0, 4.572, 0,                            !- X,Y,Z Vertex 2 {m}
  4.572, 4.572, 0,                        !- X,Y,Z Vertex 3 {m}
  4.572, 0, 0;                            !- X,Y,Z Vertex 4 {m}

OS:Surface,
  {92b172ae-5306-4c91-835f-39bccd880300}, !- Handle
  Surface 2,                              !- Name
  Wall,                                   !- Surface Type
  ,                                       !- Construction Name
  {131e927f-a7cb-4757-bc81-678fce95d9ac}, !- Space Name
  Outdoors,                               !- Outside Boundary Condition
  ,                                       !- Outside Boundary Condition Object
  SunExposed,                             !- Sun Exposure
  WindExposed,                            !- Wind Exposure
  ,                                       !- View Factor to Ground
  ,                                       !- Number of Vertices
  0, 4.572, 3.9624,                       !- X,Y,Z Vertex 1 {m}
  0, 4.572, 0,                            !- X,Y,Z Vertex 2 {m}
  0, 0, 0,                                !- X,Y,Z Vertex 3 {m}
  0, 0, 3.9624;                           !- X,Y,Z Vertex 4 {m}

OS:Surface,
  {25a50fdd-f1f3-4bf7-a329-e64b4b3f626c}, !- Handle
  Surface 3,                              !- Name
  Wall,                                   !- Surface Type
  ,                                       !- Construction Name
  {131e927f-a7cb-4757-bc81-678fce95d9ac}, !- Space Name
  Surface,                                !- Outside Boundary Condition
  {27ca3e2b-1993-43dc-ac26-70f9b4af463c}, !- Outside Boundary Condition Object
  NoSun,                                  !- Sun Exposure
  NoWind,                                 !- Wind Exposure
  ,                                       !- View Factor to Ground
  ,                                       !- Number of Vertices
  4.572, 4.572, 3.9624,                   !- X,Y,Z Vertex 1 {m}
  4.572, 4.572, 0,                        !- X,Y,Z Vertex 2 {m}
  0, 4.572, 0,                            !- X,Y,Z Vertex 3 {m}
  0, 4.572, 3.9624;                       !- X,Y,Z Vertex 4 {m}

OS:Surface,
  {bd7924d8-74bc-4f9d-a5d7-75031836fff2}, !- Handle
  Surface 4,                              !- Name
  Wall,                                   !- Surface Type
  ,                                       !- Construction Name
  {131e927f-a7cb-4757-bc81-678fce95d9ac}, !- Space Name
  Surface,                                !- Outside Boundary Condition
  {27686d32-55a8-4390-9948-fb0250396bb6}, !- Outside Boundary Condition Object
  NoSun,                                  !- Sun Exposure
  NoWind,                                 !- Wind Exposure
  ,                                       !- View Factor to Ground
  ,                                       !- Number of Vertices
  4.572, 0, 3.9624,                       !- X,Y,Z Vertex 1 {m}
  4.572, 0, 0,                            !- X,Y,Z Vertex 2 {m}
  4.572, 4.572, 0,                        !- X,Y,Z Vertex 3 {m}
  4.572, 4.572, 3.9624;                   !- X,Y,Z Vertex 4 {m}

OS:Surface,
  {741bbf00-3ec5-4ef7-b033-40de3fb1057c}, !- Handle
  Surface 5,                              !- Name
  Wall,                                   !- Surface Type
  ,                                       !- Construction Name
  {131e927f-a7cb-4757-bc81-678fce95d9ac}, !- Space Name
  Outdoors,                               !- Outside Boundary Condition
  ,                                       !- Outside Boundary Condition Object
  SunExposed,                             !- Sun Exposure
  WindExposed,                            !- Wind Exposure
  ,                                       !- View Factor to Ground
  ,                                       !- Number of Vertices
  0, 0, 3.9624,                           !- X,Y,Z Vertex 1 {m}
  0, 0, 0,                                !- X,Y,Z Vertex 2 {m}
  4.572, 0, 0,                            !- X,Y,Z Vertex 3 {m}
  4.572, 0, 3.9624;                       !- X,Y,Z Vertex 4 {m}

OS:Surface,
  {ec12bbe7-68b2-4df5-8ba1-9c00b2668503}, !- Handle
  Surface 6,                              !- Name
  RoofCeiling,                            !- Surface Type
  ,                                       !- Construction Name
  {131e927f-a7cb-4757-bc81-678fce95d9ac}, !- Space Name
  Surface,                                !- Outside Boundary Condition
  {0e74ab7a-32b5-40ef-b3e5-e67112700feb}, !- Outside Boundary Condition Object
  NoSun,                                  !- Sun Exposure
  NoWind,                                 !- Wind Exposure
  ,                                       !- View Factor to Ground
  ,                                       !- Number of Vertices
  4.572, 0, 3.9624,                       !- X,Y,Z Vertex 1 {m}
  4.572, 4.572, 3.9624,                   !- X,Y,Z Vertex 2 {m}
  0, 4.572, 3.9624,                       !- X,Y,Z Vertex 3 {m}
  0, 0, 3.9624;                           !- X,Y,Z Vertex 4 {m}

OS:ThermalZone,
  {5a67dc62-6ae8-4f33-a406-83fd5bc6e65a}, !- Handle
  Zone Office WholeBuilding - Md Office A end_a - Story Ground, !- Name
  1,                                      !- Multiplier
  ,                                       !- Ceiling Height {m}
  ,                                       !- Volume {m3}
  ,                                       !- Floor Area {m2}
  ,                                       !- Zone Inside Convection Algorithm
  ,                                       !- Zone Outside Convection Algorithm
  ,                                       !- Zone Conditioning Equipment List Name
  {8633ad97-332b-422b-925e-7292c9365cb9}, !- Zone Air Inlet Port List
  {16aff7b7-b5f0-4e69-9020-2210807a42ca}, !- Zone Air Exhaust Port List
  {0ae75b09-2841-4790-987d-5c75fb3263cc}, !- Zone Air Node Name
  {fbe77001-877e-4f75-ae17-a1031bb303a8}, !- Zone Return Air Node Name
  ,                                       !- Primary Daylighting Control Name
  ,                                       !- Fraction of Zone Controlled by Primary Daylighting Control
  ,                                       !- Secondary Daylighting Control Name
  ,                                       !- Fraction of Zone Controlled by Secondary Daylighting Control
  ,                                       !- Illuminance Map Name
  {5093f322-59a4-4c2c-ac7e-e92920cf520a}, !- Group Rendering Name
  {7bdb0d5f-1edf-46cb-84f8-76dd9ff8d541}, !- Thermostat Name
  No;                                     !- Use Ideal Air Loads

OS:Node,
  {d5866283-caf6-4b73-863a-be804e32293e}, !- Handle
  Node 1,                                 !- Name
  {0ae75b09-2841-4790-987d-5c75fb3263cc}, !- Inlet Port
  ;                                       !- Outlet Port

OS:Connection,
  {0ae75b09-2841-4790-987d-5c75fb3263cc}, !- Handle
  {3f1ecd48-8115-4247-ba93-8cad21e7a4a8}, !- Name
  {5a67dc62-6ae8-4f33-a406-83fd5bc6e65a}, !- Source Object
  11,                                     !- Outlet Port
  {d5866283-caf6-4b73-863a-be804e32293e}, !- Target Object
  2;                                      !- Inlet Port

OS:PortList,
  {8633ad97-332b-422b-925e-7292c9365cb9}, !- Handle
  {8662bdc9-8187-4326-8691-7937271b8a11}, !- Name
  {5a67dc62-6ae8-4f33-a406-83fd5bc6e65a}, !- HVAC Component
  {713730b8-befb-4eda-9e59-0f22a017fde5}; !- Port 1

OS:PortList,
  {16aff7b7-b5f0-4e69-9020-2210807a42ca}, !- Handle
  {233435c0-3ca8-4ef3-ac40-58cfca696f79}, !- Name
  {5a67dc62-6ae8-4f33-a406-83fd5bc6e65a}; !- HVAC Component

OS:Sizing:Zone,
  {80faa720-7afa-438e-9bda-ea97105bf438}, !- Handle
  {5a67dc62-6ae8-4f33-a406-83fd5bc6e65a}, !- Zone or ZoneList Name
  SupplyAirTemperature,                   !- Zone Cooling Design Supply Air Temperature Input Method
  12.8,                                   !- Zone Cooling Design Supply Air Temperature {C}
  11.11,                                  !- Zone Cooling Design Supply Air Temperature Difference {deltaC}
  SupplyAirTemperature,                   !- Zone Heating Design Supply Air Temperature Input Method
  40,                                     !- Zone Heating Design Supply Air Temperature {C}
  11.11,                                  !- Zone Heating Design Supply Air Temperature Difference {deltaC}
  0.0085,                                 !- Zone Cooling Design Supply Air Humidity Ratio {kg-H2O/kg-air}
  0.008,                                  !- Zone Heating Design Supply Air Humidity Ratio {kg-H2O/kg-air}
  ,                                       !- Zone Heating Sizing Factor
  ,                                       !- Zone Cooling Sizing Factor
  DesignDay,                              !- Cooling Design Air Flow Method
  ,                                       !- Cooling Design Air Flow Rate {m3/s}
  ,                                       !- Cooling Minimum Air Flow per Zone Floor Area {m3/s-m2}
  ,                                       !- Cooling Minimum Air Flow {m3/s}
  ,                                       !- Cooling Minimum Air Flow Fraction
  DesignDay,                              !- Heating Design Air Flow Method
  ,                                       !- Heating Design Air Flow Rate {m3/s}
  ,                                       !- Heating Maximum Air Flow per Zone Floor Area {m3/s-m2}
  ,                                       !- Heating Maximum Air Flow {m3/s}
  ,                                       !- Heating Maximum Air Flow Fraction
  ,                                       !- Design Zone Air Distribution Effectiveness in Cooling Mode
  ,                                       !- Design Zone Air Distribution Effectiveness in Heating Mode
  No,                                     !- Account for Dedicated Outdoor Air System
  NeutralSupplyAir,                       !- Dedicated Outdoor Air System Control Strategy
  autosize,                               !- Dedicated Outdoor Air Low Setpoint Temperature for Design {C}
  autosize;                               !- Dedicated Outdoor Air High Setpoint Temperature for Design {C}

OS:ZoneHVAC:EquipmentList,
  {d4233fac-304f-4110-8244-50dfd87d1f1d}, !- Handle
  Zone HVAC Equipment List 1,             !- Name
  {5a67dc62-6ae8-4f33-a406-83fd5bc6e65a}, !- Thermal Zone
  {b44ce764-2d90-4f0c-b697-6869432e870a}, !- Zone Equipment 1
  1,                                      !- Zone Equipment Cooling Sequence 1
  1;                                      !- Zone Equipment Heating or No-Load Sequence 1

OS:Space,
  {d61bb5ee-f25c-4ce4-9dad-66d6d9d60b69}, !- Handle
  Office WholeBuilding - Md Office B end_a - Story Ground, !- Name
  {2ba98b71-73fd-4eea-8c27-bfc04c228647}, !- Space Type Name
  ,                                       !- Default Construction Set Name
  ,                                       !- Default Schedule Set Name
  -0,                                     !- Direction of Relative North {deg}
  -15.24,                                 !- X Origin {m}
  -5.588,                                 !- Y Origin {m}
  0,                                      !- Z Origin {m}
  {d0dcb71e-2833-489c-8641-3d98e407ad13}, !- Building Story Name
  {18f3d88b-14ba-489c-95b8-a80052071e8d}; !- Thermal Zone Name

OS:Surface,
  {f7e60f87-bdea-46a3-be58-20d6c2aa1b57}, !- Handle
  Surface 7,                              !- Name
  Floor,                                  !- Surface Type
  ,                                       !- Construction Name
  {d61bb5ee-f25c-4ce4-9dad-66d6d9d60b69}, !- Space Name
  Ground,                                 !- Outside Boundary Condition
  ,                                       !- Outside Boundary Condition Object
  NoSun,                                  !- Sun Exposure
  NoWind,                                 !- Wind Exposure
  ,                                       !- View Factor to Ground
  ,                                       !- Number of Vertices
  0, 0, 0,                                !- X,Y,Z Vertex 1 {m}
  0, 11.176, 0,                           !- X,Y,Z Vertex 2 {m}
  4.572, 11.176, 0,                       !- X,Y,Z Vertex 3 {m}
  4.572, 0, 0;                            !- X,Y,Z Vertex 4 {m}

OS:Surface,
  {1533ff84-3160-4f31-a18e-97f485bd7b85}, !- Handle
  Surface 8,                              !- Name
  Wall,                                   !- Surface Type
  ,                                       !- Construction Name
  {d61bb5ee-f25c-4ce4-9dad-66d6d9d60b69}, !- Space Name
  Outdoors,                               !- Outside Boundary Condition
  ,                                       !- Outside Boundary Condition Object
  SunExposed,                             !- Sun Exposure
  WindExposed,                            !- Wind Exposure
  ,                                       !- View Factor to Ground
  ,                                       !- Number of Vertices
  0, 11.176, 3.9624,                      !- X,Y,Z Vertex 1 {m}
  0, 11.176, 0,                           !- X,Y,Z Vertex 2 {m}
  0, 0, 0,                                !- X,Y,Z Vertex 3 {m}
  0, 0, 3.9624;                           !- X,Y,Z Vertex 4 {m}

OS:Surface,
  {0a062344-74a4-407c-8671-4b89b3674477}, !- Handle
  Surface 9,                              !- Name
  Wall,                                   !- Surface Type
  ,                                       !- Construction Name
  {d61bb5ee-f25c-4ce4-9dad-66d6d9d60b69}, !- Space Name
  Surface,                                !- Outside Boundary Condition
  {f0463918-b4b2-4d1c-b94c-b359cc5f2f51}, !- Outside Boundary Condition Object
  NoSun,                                  !- Sun Exposure
  NoWind,                                 !- Wind Exposure
  ,                                       !- View Factor to Ground
  ,                                       !- Number of Vertices
  4.572, 11.176, 3.9624,                  !- X,Y,Z Vertex 1 {m}
  4.572, 11.176, 0,                       !- X,Y,Z Vertex 2 {m}
  0, 11.176, 0,                           !- X,Y,Z Vertex 3 {m}
  0, 11.176, 3.9624;                      !- X,Y,Z Vertex 4 {m}

OS:Surface,
  {8063dac0-c4b5-4375-ad64-067a7f27e4bf}, !- Handle
  Surface 10,                             !- Name
  Wall,                                   !- Surface Type
  ,                                       !- Construction Name
  {d61bb5ee-f25c-4ce4-9dad-66d6d9d60b69}, !- Space Name
  Surface,                                !- Outside Boundary Condition
  {560c184c-5110-4900-88ab-ad8e8b40345c}, !- Outside Boundary Condition Object
  NoSun,                                  !- Sun Exposure
  NoWind,                                 !- Wind Exposure
  ,                                       !- View Factor to Ground
  ,                                       !- Number of Vertices
  4.572, 0, 3.9624,                       !- X,Y,Z Vertex 1 {m}
  4.572, 0, 0,                            !- X,Y,Z Vertex 2 {m}
  4.572, 11.176, 0,                       !- X,Y,Z Vertex 3 {m}
  4.572, 11.176, 3.9624;                  !- X,Y,Z Vertex 4 {m}

OS:Surface,
  {27ca3e2b-1993-43dc-ac26-70f9b4af463c}, !- Handle
  Surface 11,                             !- Name
  Wall,                                   !- Surface Type
  ,                                       !- Construction Name
  {d61bb5ee-f25c-4ce4-9dad-66d6d9d60b69}, !- Space Name
  Surface,                                !- Outside Boundary Condition
  {25a50fdd-f1f3-4bf7-a329-e64b4b3f626c}, !- Outside Boundary Condition Object
  NoSun,                                  !- Sun Exposure
  NoWind,                                 !- Wind Exposure
  ,                                       !- View Factor to Ground
  ,                                       !- Number of Vertices
  0, 0, 3.9624,                           !- X,Y,Z Vertex 1 {m}
  0, 0, 0,                                !- X,Y,Z Vertex 2 {m}
  4.572, 0, 0,                            !- X,Y,Z Vertex 3 {m}
  4.572, 0, 3.9624;                       !- X,Y,Z Vertex 4 {m}

OS:Surface,
  {238ebfe3-724a-49ce-8b9b-05730d02373f}, !- Handle