
OS:Version,
  {16e75f0f-bd9a-41c9-b8d3-8141842584b9}, !- Handle
  2.4.0;                                  !- Version Identifier

OS:Site,
  {01cc3407-f93e-42b7-b65e-ad01e9e979ff}, !- Handle
  Atlanta Hartsfield Intl Ap_GA_USA,      !- Name
  33.63,                                  !- Latitude {deg}
  -84.43,                                 !- Longitude {deg}
  -5,                                     !- Time Zone {hr}
  308,                                    !- Elevation {m}
  ;                                       !- Terrain

OS:YearDescription,
  {00fee1a4-be4b-4ce9-9ba5-6491f1afab4f}; !- Handle

OS:ClimateZones,
  {53508584-c8ad-4b20-9d38-c959572c9bfa}, !- Handle
  ,                                       !- Active Institution
  ,                                       !- Active Year
  ,                                       !- Climate Zone Institution Name 1
  ,                                       !- Climate Zone Document Name 1
  ,                                       !- Climate Zone Document Year 1
  3A,                                     !- Climate Zone Value 1
  CEC,                                    !- Climate Zone Institution Name 2
  California Climate Zone Descriptions,   !- Climate Zone Document Name 2
  1995,                                   !- Climate Zone Document Year 2
  ;                                       !- Climate Zone Value 2

OS:Facility,
  {00f9143e-6730-4539-913f-1e8347456ddf}; !- Handle

OS:SimulationControl,
  {241286c0-3c4f-49b4-847b-660008bb12cc}, !- Handle
  ,                                       !- Do Zone Sizing Calculation
  ,                                       !- Do System Sizing Calculation
  ,                                       !- Do Plant Sizing Calculation
  No,                                     !- Run Simulation for Sizing Periods
  Yes;                                    !- Run Simulation for Weather File Run Periods

OS:Sizing:Parameters,
  {fdd4e1f6-0a0f-43e8-9f10-c7e611d1dd43}, !- Handle
  1.25,                                   !- Heating Sizing Factor
  1.15;                                   !- Cooling Sizing Factor

OS:Timestep,
  {af6551bd-3e45-40c9-aa11-b97e2415c329}, !- Handle
  6;                                      !- Number of Timesteps per Hour

OS:ShadowCalculation,
  {a2e2a0ce-9cc8-4d76-a861-971f26facbca}, !- Handle
  20,                                     !- Calculation Frequency
  15000;                                  !- Maximum Figures in Shadow Overlap Calculations

OS:HeatBalanceAlgorithm,
  {55ed9902-9d7d-4712-9fdb-fd509fbe4b3b}, !- Handle
  ConductionTransferFunction,             !- Algorithm
  200;                                    !- Surface Temperature Upper Limit {C}

OS:RunPeriod,
  {13faa16a-fd08-4b71-9849-41475056d961}, !- Handle
  Run Period 1,                           !- Name
  1,                                      !- Begin Month
  1,                                      !- Begin Day of Month
  12,                                     !- End Month
  31,                                     !- End Day of Month
  ,                                       !- Use Weather File Holidays and Special Days
  ,                                       !- Use Weather File Daylight Saving Period
  ,                                       !- Apply Weekend Holiday Rule
  ,                                       !- Use Weather File Rain Indicators
  ,                                       !- Use Weather File Snow Indicators
  ;                                       !- Number of Times Runperiod to be Repeated

OS:LifeCycleCost:Parameters,
  {bf733bc5-1d5c-44c1-82f8-3cf94fb943d3}, !- Handle
  ,                                       !- Analysis Type
  ,                                       !- Discounting Convention
  ,                                       !- Inflation Approach
  ,                                       !- Real Discount Rate
  ,                                       !- Nominal Discount Rate
  ,                                       !- Inflation
  ,                                       !- Base Date Month
  ,                                       !- Base Date Year
  ,                                       !- Service Date Month
  ,                                       !- Service Date Year
  ;                                       !- Length of Study Period in Years

OS:WeatherFile,
  {ab8bb5e0-ce63-44e6-9436-89c709b02fad}, !- Handle
  Atlanta Hartsfield Intl Ap,             !- City
  GA,                                     !- State Province Region
  USA,                                    !- Country
  TMY3,                                   !- Data Source
  722190,                                 !- WMO Number
  33.63,                                  !- Latitude {deg}
  -84.43,                                 !- Longitude {deg}
  -5,                                     !- Time Zone {hr}
  308,                                    !- Elevation {m}
  file:////Users/dgoldwas/Documents/GitHub/Personal/PAT_projects/PAT_Basic_Model_Articulation/temp_data/analysis_2bf519d3-b4a4-48ff-b4df-5617d7ba919f/weather/USA_GA_Atlanta-Hartsfield-Jackson.Intl.AP.722190_TMY3.epw, !- Url
  288AE598;                               !- Checksum

OS:Site:WaterMainsTemperature,
  {8478b49c-93da-4039-aa55-6bcb368a9f92}, !- Handle
  Correlation,                            !- Calculation Method
  ,                                       !- Temperature Schedule Name
  16.6,                                   !- Annual Average Outdoor Air Temperature {C}
  22.5;                                   !- Maximum Difference In Monthly Average Outdoor Air Temperatures {deltaC}

OS:SizingPeriod:DesignDay,
  {a2a497d8-005e-4a28-afc4-f247c9a98c69}, !- Handle
  Atlanta Hartsfield Intl Ap Ann Clg .4% Condns WB=>MDB, !- Name
  31.2,                                   !- Maximum Dry-Bulb Temperature {C}
  9.5,                                    !- Daily Dry-Bulb Temperature Range {deltaC}
  25.1,                                   !- Humidity Indicating Conditions at Maximum Dry-Bulb
  97679,                                  !- Barometric Pressure {Pa}
  4,                                      !- Wind Speed {m/s}
  300,                                    !- Wind Direction {deg}
  0,                                      !- Sky Clearness
  0,                                      !- Rain Indicator
  0,                                      !- Snow Indicator
  21,                                     !- Day of Month
  7,                                      !- Month
  SummerDesignDay,                        !- Day Type
  0,                                      !- Daylight Saving Time Indicator
  Wetbulb,                                !- Humidity Indicating Type
  ,                                       !- Humidity Indicating Day Schedule Name
  DefaultMultipliers,                     !- Dry-Bulb Temperature Range Modifier Type
  ,                                       !- Dry-Bulb Temperature Range Modifier Schedule Name
  ASHRAETau,                              !- Solar Model Indicator
  ,                                       !- Beam Solar Day Schedule Name
  ,                                       !- Diffuse Solar Day Schedule Name
  0.556,                                  !- ASHRAE Taub {dimensionless}
  1.779;                                  !- ASHRAE Taud {dimensionless}

OS:SizingPeriod:DesignDay,
  {d89266b8-09e6-43a3-a897-c25b6f123821}, !- Handle
  Atlanta Hartsfield Intl Ap Ann Clg .4% Condns DB=>MWB, !- Name
  34.4,                                   !- Maximum Dry-Bulb Temperature {C}
  9.5,                                    !- Daily Dry-Bulb Temperature Range {deltaC}
  23.5,                                   !- Humidity Indicating Conditions at Maximum Dry-Bulb
  97679,                                  !- Barometric Pressure {Pa}
  4,                                      !- Wind Speed {m/s}
  300,                                    !- Wind Direction {deg}
  0,                                      !- Sky Clearness
  0,                                      !- Rain Indicator
  0,                                      !- Snow Indicator
  21,                                     !- Day of Month
  7,                                      !- Month
  SummerDesignDay,                        !- Day Type
  0,                                      !- Daylight Saving Time Indicator
  Wetbulb,                                !- Humidity Indicating Type
  ,                                       !- Humidity Indicating Day Schedule Name
  DefaultMultipliers,                     !- Dry-Bulb Temperature Range Modifier Type
  ,                                       !- Dry-Bulb Temperature Range Modifier Schedule Name
  ASHRAETau,                              !- Solar Model Indicator
  ,                                       !- Beam Solar Day Schedule Name
  ,                                       !- Diffuse Solar Day Schedule Name
  0.556,                                  !- ASHRAE Taub {dimensionless}
  1.779;                                  !- ASHRAE Taud {dimensionless}

OS:SizingPeriod:DesignDay,
  {72ca64af-5a1a-48e4-808f-88bdd6105c24}, !- Handle
  Atlanta Hartsfield Intl Ap Ann Htg 99.6% Condns DB, !- Name
  -6.3,                                   !- Maximum Dry-Bulb Temperature {C}
  0,                                      !- Daily Dry-Bulb Temperature Range {deltaC}
  -6.3,                                   !- Humidity Indicating Conditions at Maximum Dry-Bulb
  97679,                                  !- Barometric Pressure {Pa}
  5.3,                                    !- Wind Speed {m/s}
  320,                                    !- Wind Direction {deg}
  0,                                      !- Sky Clearness
  0,                                      !- Rain Indicator
  0,                                      !- Snow Indicator
  21,                                     !- Day of Month
  1,                                      !- Month
  WinterDesignDay,                        !- Day Type
  0,                                      !- Daylight Saving Time Indicator
  Wetbulb,                                !- Humidity Indicating Type
  ,                                       !- Humidity Indicating Day Schedule Name
  DefaultMultipliers,                     !- Dry-Bulb Temperature Range Modifier Type
  ,                                       !- Dry-Bulb Temperature Range Modifier Schedule Name
  ASHRAEClearSky;                         !- Solar Model Indicator

OS:SpaceType,
  {47f4f4bf-92d6-481a-a6c3-b92a5eb89932}, !- Handle
  LargeHotel Banquet - 90.1-2004,         !- Name
  ,                                       !- Default Construction Set Name
  {8ee3bf08-c01d-4c37-b7c0-5b74dfa440a1}, !- Default Schedule Set Name
  {e7729c0c-238c-4716-aeea-73bb9fa7aac3}, !- Group Rendering Name
  {f2fa0378-a666-4297-91b7-11948bd01823}, !- Design Specification Outdoor Air Object Name
  LargeHotel,                             !- Standards Building Type
  Banquet;                                !- Standards Space Type

OS:Rendering:Color,
  {e7729c0c-238c-4716-aeea-73bb9fa7aac3}, !- Handle
  Rendering Color 1,                      !- Name
  230,                                    !- Rendering Red Value
  196,                                    !- Rendering Green Value
  120;                                    !- Rendering Blue Value

OS:SpaceType,
  {9b2e419f-cf53-4c81-a720-135556b96362}, !- Handle
  LargeHotel Cafe - 90.1-2004,            !- Name
  ,                                       !- Default Construction Set Name
  {5c51d144-f671-48ea-89c9-a9a8bc064e20}, !- Default Schedule Set Name
  {d922a39f-a4cd-411a-aaaf-0e69da3ed90b}, !- Group Rendering Name
  {3f38f78c-6b4d-46e3-91ff-fdd1ef382d45}, !- Design Specification Outdoor Air Object Name
  LargeHotel,                             !- Standards Building Type
  Cafe;                                   !- Standards Space Type

OS:Rendering:Color,
  {d922a39f-a4cd-411a-aaaf-0e69da3ed90b}, !- Handle
  Rendering Color 2,                      !- Name
  31,                                     !- Rendering Red Value
  169,                                    !- Rendering Green Value
  34;                                     !- Rendering Blue Value

OS:SpaceType,
  {94f4e966-6125-4ad1-8143-1cbc97663ee6}, !- Handle
  LargeHotel Corridor - 90.1-2004,        !- Name
  ,                                       !- Default Construction Set Name
  {940db443-6df7-42e5-a78b-455dd7c70eda}, !- Default Schedule Set Name
  {458a3a42-1552-47f4-aee0-cca0aac83ac5}, !- Group Rendering Name
  {9133b0d8-7ce3-40b4-a1c3-4b1e19ac38e3}, !- Design Specification Outdoor Air Object Name
  LargeHotel,                             !- Standards Building Type
  Corridor;                               !- Standards Space Type

OS:Rendering:Color,
  {458a3a42-1552-47f4-aee0-cca0aac83ac5}, !- Handle
  Rendering Color 3,                      !- Name
  169,                                    !- Rendering Red Value
  31,                                     !- Rendering Green Value
  31;                                     !- Rendering Blue Value

OS:SpaceType,
  {0744a517-0019-42d4-893a-d542a85aa4b2}, !- Handle
  LargeHotel GuestRoom - 90.1-2004,       !- Name
  ,                                       !- Default Construction Set Name
  {c2dbc5db-89e2-49bb-8c52-967655cc11d2}, !- Default Schedule Set Name
  {62750825-7e02-40e1-9f4c-520e6d24d64a}, !- Group Rendering Name
  {058d5ecd-9ff8-4861-8fa6-71de6b36bee0}, !- Design Specification Outdoor Air Object Name
  LargeHotel,                             !- Standards Building Type
  GuestRoom;                              !- Standards Space Type

OS:Rendering:Color,
  {62750825-7e02-40e1-9f4c-520e6d24d64a}, !- Handle
  Rendering Color 4,                      !- Name
  78,                                     !- Rendering Red Value
  167,                                    !- Rendering Green Value
  222;                                    !- Rendering Blue Value

OS:SpaceType,
  {c942830e-58ba-433b-8326-9c838cbb6d55}, !- Handle
  LargeHotel Kitchen - 90.1-2004,         !- Name
  ,                                       !- Default Construction Set Name
  {4ad28047-6e6d-4df9-b4a1-1153f01c0b82}, !- Default Schedule Set Name
  {e2d87afc-7daf-43f1-bd4f-3341f387627b}, !- Group Rendering Name
  {1e1d3d8d-6c82-440d-bddf-9672c6992f4a}, !- Design Specification Outdoor Air Object Name
  LargeHotel,                             !- Standards Building Type
  Kitchen;                                !- Standards Space Type

OS:Rendering:Color,
  {e2d87afc-7daf-43f1-bd4f-3341f387627b}, !- Handle
  Rendering Color 5,                      !- Name
  78,                                     !- Rendering Red Value
  222,                                    !- Rendering Green Value
  133;                                    !- Rendering Blue Value

OS:SpaceType,
  {28e60d6d-aa80-4c6d-9f1f-90bb7d299a4f}, !- Handle
  LargeHotel Laundry - 90.1-2004,         !- Name
  ,                                       !- Default Construction Set Name
  {c8b88267-708d-4938-b327-22e134112d1a}, !- Default Schedule Set Name
  {f5b1f9aa-61d0-4951-b5f5-c2e0d0d9cc56}, !- Group Rendering Name
  {2c43a34b-63b9-4dca-bc91-1bb45c771cef}, !- Design Specification Outdoor Air Object Name
  LargeHotel,                             !- Standards Building Type
  Laundry;                                !- Standards Space Type

OS:Rendering:Color,
  {f5b1f9aa-61d0-4951-b5f5-c2e0d0d9cc56}, !- Handle
  Rendering Color 6,                      !- Name
  120,                                    !- Rendering Red Value
  149,                                    !- Rendering Green Value
  230;                                    !- Rendering Blue Value

OS:SpaceType,
  {24dcfd34-b10d-415e-bb2d-d804465f7daf}, !- Handle
  LargeHotel Lobby - 90.1-2004,           !- Name
  ,                                       !- Default Construction Set Name
  {148a058a-a378-4c33-8608-229340cc4d18}, !- Default Schedule Set Name
  {f07e60f5-0d6a-440c-8788-fdfd8c492cd8}, !- Group Rendering Name
  {10e4be23-b5ed-4b51-a762-35a16acc0e3c}, !- Design Specification Outdoor Air Object Name
  LargeHotel,                             !- Standards Building Type
  Lobby;                                  !- Standards Space Type

OS:Rendering:Color,
  {f07e60f5-0d6a-440c-8788-fdfd8c492cd8}, !- Handle
  Rendering Color 7,                      !- Name
  230,                                    !- Rendering Red Value
  157,                                    !- Rendering Green Value
  120;                                    !- Rendering Blue Value

OS:SpaceType,
  {f8a2fbaf-fba3-4835-b954-aeba33337c2d}, !- Handle
  LargeHotel Mechanical - 90.1-2004,      !- Name
  ,                                       !- Default Construction Set Name
  {83a59d3d-daaf-4017-b61f-b62f4d628d0b}, !- Default Schedule Set Name
  {af2a611f-0971-4032-98f6-dc06d54bb90f}, !- Group Rendering Name
  {fe06dd91-5962-4c93-9bda-363cc472140d}, !- Design Specification Outdoor Air Object Name
  LargeHotel,                             !- Standards Building Type
  Mechanical;                             !- Standards Space Type

OS:Rendering:Color,
  {af2a611f-0971-4032-98f6-dc06d54bb90f}, !- Handle
  Rendering Color 8,                      !- Name
  41,                                     !- Rendering Red Value
  31,                                     !- Rendering Green Value
  169;                                    !- Rendering Blue Value

OS:SpaceType,
  {ef920492-1277-4c9b-9562-3d5c34d68b92}, !- Handle
  LargeHotel Retail - 90.1-2004,          !- Name
  ,                                       !- Default Construction Set Name
  {8d08a64a-302a-492a-a256-5b419373defd}, !- Default Schedule Set Name
  {77b59356-c42d-48b1-8911-e1c6e6425ec3}, !- Group Rendering Name
  {e5525141-5eab-4484-93de-ee8ceeae8fae}, !- Design Specification Outdoor Air Object Name
  LargeHotel,                             !- Standards Building Type
  Retail;                                 !- Standards Space Type

OS:Rendering:Color,
  {77b59356-c42d-48b1-8911-e1c6e6425ec3}, !- Handle
  Rendering Color 9,                      !- Name
  171,                                    !- Rendering Red Value
  222,                                    !- Rendering Green Value
  78;                                     !- Rendering Blue Value

OS:SpaceType,
  {7673bc5f-4036-4b7b-a8dd-b5451117a9ac}, !- Handle
  LargeHotel Storage - 90.1-2004,         !- Name
  ,                                       !- Default Construction Set Name
  {0dfdca4b-d3bc-42b1-b394-3bbf924244d3}, !- Default Schedule Set Name
  {e392891c-0826-4a7c-bc03-11fb2f1e4565}, !- Group Rendering Name
  {55ca903c-38ba-4920-9eba-f0ca213062f5}, !- Design Specification Outdoor Air Object Name
  LargeHotel,                             !- Standards Building Type
  Storage;                                !- Standards Space Type

OS:Rendering:Color,
  {e392891c-0826-4a7c-bc03-11fb2f1e4565}, !- Handle
  Rendering Color 10,                     !- Name
  120,                                    !- Rendering Red Value
  149,                                    !- Rendering Green Value
  230;                                    !- Rendering Blue Value

OS:Building,
  {b147c4db-e655-4f15-aa54-961329cf1d3a}, !- Handle
  90.1-2004|LargeHotel,                   !- Name
  ,                                       !- Building Sector Type
  ,                                       !- North Axis {deg}
  ,                                       !- Nominal Floor to Floor Height {m}
  ,                                       !- Space Type Name
  {405c0f67-2501-478c-ad0b-dd9a993aff76}, !- Default Construction Set Name
  ,                                       !- Default Schedule Set Name
  ,                                       !- Standards Number of Stories
  ,                                       !- Standards Number of Above Ground Stories
  LargeHotel;                             !- Standards Building Type

OS:BuildingStory,
  {4bc6dff2-76ff-44a0-b48d-e28a45fa3591}, !- Handle
  Story B1,                               !- Name
  -3.048,                                 !- Nominal Z Coordinate {m}
  3.048,                                  !- Nominal Floor to Floor Height {m}
  ,                                       !- Default Construction Set Name
  ,                                       !- Default Schedule Set Name
  {631ff5b4-cd64-4fc5-93f6-31b4c40df4d5}; !- Group Rendering Name

OS:Space,
  {b73dc43d-0405-4bf7-8d9a-f6608981ab7c}, !- Handle
  LargeHotel Cafe A end_a - Story B1,     !- Name
  {9b2e419f-cf53-4c81-a720-135556b96362}, !- Space Type Name
  ,                                       !- Default Construction Set Name
  ,                                       !- Default Schedule Set Name
  -0,                                     !- Direction of Relative North {deg}
  -25.1680316707886,                      !- X Origin {m}
  -8.38934389026287,                      !- Y Origin {m}
  -3.048,                                 !- Z Origin {m}
  {4bc6dff2-76ff-44a0-b48d-e28a45fa3591}, !- Building Story Name
  {f913b262-61c5-4d37-babf-b60f16ea1f71}; !- Thermal Zone Name

OS:Surface,
  {ae8cfff5-81e7-4620-980f-6a1d2182943a}, !- Handle
  Surface 1,                              !- Name
  Floor,                                  !- Surface Type
  ,                                       !- Construction Name
  {b73dc43d-0405-4bf7-8d9a-f6608981ab7c}, !- Space Name
  Ground,                                 !- Outside Boundary Condition
  ,                                       !- Outside Boundary Condition Object
  NoSun,                                  !- Sun Exposure
  NoWind,                                 !- Wind Exposure
  ,                                       !- View Factor to Ground
  ,                                       !- Number of Vertices
  0, -1.77635683940025e-15, 0,            !- X,Y,Z Vertex 1 {m}
  0, 4.572, 0,                            !- X,Y,Z Vertex 2 {m}
  4.572, 4.572, 0,                        !- X,Y,Z Vertex 3 {m}
  4.572, -1.77635683940025e-15, 0;        !- X,Y,Z Vertex 4 {m}

OS:Surface,
  {8149972a-02c1-4cb3-866d-0ce0350d9bc2}, !- Handle
  Surface 2,                              !- Name
  Wall,                                   !- Surface Type
  ,                                       !- Construction Name
  {b73dc43d-0405-4bf7-8d9a-f6608981ab7c}, !- Space Name
  Ground,                                 !- Outside Boundary Condition
  ,                                       !- Outside Boundary Condition Object
  NoSun,                                  !- Sun Exposure
  NoWind,                                 !- Wind Exposure
  ,                                       !- View Factor to Ground
  ,                                       !- Number of Vertices
  0, 4.572, 3.048,                        !- X,Y,Z Vertex 1 {m}
  0, 4.572, 0,                            !- X,Y,Z Vertex 2 {m}
  0, -1.77635683940025e-15, 0,            !- X,Y,Z Vertex 3 {m}
  0, -1.77635683940025e-15, 3.048;        !- X,Y,Z Vertex 4 {m}

OS:Surface,
  {e8b094f1-e49d-4153-8655-4ff1cb7c0739}, !- Handle
  Surface 3,                              !- Name
  Wall,                                   !- Surface Type
  ,                                       !- Construction Name
  {b73dc43d-0405-4bf7-8d9a-f6608981ab7c}, !- Space Name
  Surface,                                !- Outside Boundary Condition
  {d5ed0d64-b6b6-4a40-b1c6-e4979c3ffbd6}, !- Outside Boundary Condition Object
  NoSun,                                  !- Sun Exposure
  NoWind,                                 !- Wind Exposure
  ,                                       !- View Factor to Ground
  ,                                       !- Number of Vertices
  4.572, 4.572, 3.048,                    !- X,Y,Z Vertex 1 {m}
  4.572, 4.572, 0,                        !- X,Y,Z Vertex 2 {m}
  0, 4.572, 0,                            !- X,Y,Z Vertex 3 {m}
  0, 4.572, 3.048;                        !- X,Y,Z Vertex 4 {m}

OS:Surface,
  {e9876047-dcab-4ebd-81c8-9efa3d369950}, !- Handle
  Surface 4,                              !- Name
  Wall,                                   !- Surface Type
  ,                                       !- Construction Name
  {b73dc43d-0405-4bf7-8d9a-f6608981ab7c}, !- Space Name
  Surface,                                !- Outside Boundary Condition
  {3bd8697e-0346-43ea-8acf-42b544270fe7}, !- Outside Boundary Condition Object
  NoSun,                                  !- Sun Exposure
  NoWind,                                 !- Wind Exposure
  ,                                       !- View Factor to Ground
  ,                                       !- Number of Vertices
  4.572, -1.77635683940025e-15, 3.048,    !- X,Y,Z Vertex 1 {m}
  4.572, -1.77635683940025e-15, 0,        !- X,Y,Z Vertex 2 {m}
  4.572, 4.572, 0,                        !- X,Y,Z Vertex 3 {m}
  4.572, 4.572, 3.048;                    !- X,Y,Z Vertex 4 {m}

OS:Surface,
  {9df1f018-da75-4c2e-91eb-69d132a4abb3}, !- Handle
  Surface 5,                              !- Name
  Wall,                                   !- Surface Type
  ,                                       !- Construction Name
  {b73dc43d-0405-4bf7-8d9a-f6608981ab7c}, !- Space Name
  Ground,                                 !- Outside Boundary Condition
  ,                                       !- Outside Boundary Condition Object
  NoSun,                                  !- Sun Exposure
  NoWind,                                 !- Wind Exposure
  ,                                       !- View Factor to Ground
  ,                                       !- Number of Vertices
  0, -1.77635683940025e-15, 3.048,        !- X,Y,Z Vertex 1 {m}
  0, -1.77635683940025e-15, 0,            !- X,Y,Z Vertex 2 {m}
  4.572, -1.77635683940025e-15, 0,        !- X,Y,Z Vertex 3 {m}
  4.572, -1.77635683940025e-15, 3.048;    !- X,Y,Z Vertex 4 {m}

OS:Surface,
  {41291da4-21d4-4e44-96fb-2da3dcffeafa}, !- Handle
  Surface 6,                              !- Name
  RoofCeiling,                            !- Surface Type
  ,                                       !- Construction Name
  {b73dc43d-0405-4bf7-8d9a-f6608981ab7c}, !- Space Name
  Surface,                                !- Outside Boundary Condition
  {04349fec-c635-485d-b45c-4112b8947cf2}, !- Outside Boundary Condition Object
  NoSun,                                  !- Sun Exposure
  NoWind,                                 !- Wind Exposure
  ,                                       !- View Factor to Ground
  ,                                       !- Number of Vertices
  4.572, -1.77635683940025e-15, 3.048,    !- X,Y,Z Vertex 1 {m}
  4.572, 4.572, 3.048,                    !- X,Y,Z Vertex 2 {m}
  0, 4.572, 3.048,                        !- X,Y,Z Vertex 3 {m}
  0, -1.77635683940025e-15, 3.048;        !- X,Y,Z Vertex 4 {m}

OS:ThermalZone,
  {f913b262-61c5-4d37-babf-b60f16ea1f71}, !- Handle
  Zone LargeHotel Cafe A end_a - Story B1, !- Name
  1,                                      !- Multiplier
  ,                                       !- Ceiling Height {m}
  ,                                       !- Volume {m3}
  ,                                       !- Floor Area {m2}
  ,                                       !- Zone Inside Convection Algorithm
  ,                                       !- Zone Outside Convection Algorithm
  ,                                       !- Zone Conditioning Equipment List Name
  {74ecfa50-e666-4008-bcab-3bdb0660f6a2}, !- Zone Air Inlet Port List
  {478dc2fc-951a-45f0-9ee6-61d9fb4b7480}, !- Zone Air Exhaust Port List
  {97f38f1f-8a1d-4a65-bad9-295ce62719f9}, !- Zone Air Node Name
  {03c2caf6-7065-4a5a-a888-d8bbc1555b4e}, !- Zone Return Air Node Name
  ,                                       !- Primary Daylighting Control Name
  ,                                       !- Fraction of Zone Controlled by Primary Daylighting Control
  ,                                       !- Secondary Daylighting Control Name
  ,                                       !- Fraction of Zone Controlled by Secondary Daylighting Control
  ,                                       !- Illuminance Map Name
  {9a90b3b7-f113-459e-8319-be85b7074054}, !- Group Rendering Name
  {5a0634f2-06a7-449e-bbb9-5ca189fbb514}, !- Thermostat Name
  No;                                     !- Use Ideal Air Loads

OS:Node,
  {11328f42-f317-4696-b10c-9992fa70e51c}, !- Handle
  Node 1,                                 !- Name
  {97f38f1f-8a1d-4a65-bad9-295ce62719f9}, !- Inlet Port
  ;                                       !- Outlet Port

OS:Connection,
  {97f38f1f-8a1d-4a65-bad9-295ce62719f9}, !- Handle
  {bf6e5882-8e4a-4114-94c6-e203439de4f0}, !- Name
  {f913b262-61c5-4d37-babf-b60f16ea1f71}, !- Source Object
  11,                                     !- Outlet Port
  {11328f42-f317-4696-b10c-9992fa70e51c}, !- Target Object
  2;                                      !- Inlet Port

OS:PortList,
  {74ecfa50-e666-4008-bcab-3bdb0660f6a2}, !- Handle
  {fb67ee37-b0ce-482e-b4cd-5deccd5d0be9}, !- Name
  {f913b262-61c5-4d37-babf-b60f16ea1f71}, !- HVAC Component
  {13435a86-14ed-4c62-9b3a-2f000e46875e}; !- Port 1

OS:PortList,
  {478dc2fc-951a-45f0-9ee6-61d9fb4b7480}, !- Handle
  {e6d3e22a-15f8-42fb-aeb9-ed8d931011a2}, !- Name
  {f913b262-61c5-4d37-babf-b60f16ea1f71}; !- HVAC Component

OS:Sizing:Zone,
  {04130cb5-4a58-471d-b1cf-e69b66f4ae9b}, !- Handle
  {f913b262-61c5-4d37-babf-b60f16ea1f71}, !- Zone or ZoneList Name
  SupplyAirTemperature,                   !- Zone Cooling Design Supply Air Temperature Input Method
  12.8,                                   !- Zone Cooling Design Supply Air Temperature {C}
  11.11,                                  !- Zone Cooling Design Supply Air Temperature Difference {deltaC}
  SupplyAirTemperature,                   !- Zone Heating Design Supply Air Temperature Input Method
  40.0000000000001,                       !- Zone Heating Design Supply Air Temperature {C}