
OS:Version,
  {a135f98a-1d8b-459c-b3e7-b7f79d504d7d}, !- Handle
  3.0.0;                                  !- Version Identifier

OS:Schedule:Constant,
  {011a98dd-8a58-4d3c-bb89-45238c4223fb}, !- Handle
  Always On Discrete,                     !- Name
  {950ed258-8ff3-4c0a-b895-f6e63be73e26}, !- Schedule Type Limits Name
  1;                                      !- Value

OS:ScheduleTypeLimits,
  {950ed258-8ff3-4c0a-b895-f6e63be73e26}, !- Handle
  Always On Discrete Limits,              !- Name
  0,                                      !- Lower Limit Value
  1,                                      !- Upper Limit Value
  Discrete,                               !- Numeric Type
  Availability;                           !- Unit Type

OS:Construction,
  {c0f458f6-c6a5-4b88-a3a9-d68fae9265f0}, ! Handle
  000 AtticRoof ClimateZone 1-8,          ! Name
  {8f2a3d5a-9cc6-48e4-80db-4747319a30bd}, ! Surface Rendering Name
  {9d81a2c4-7250-4b7f-b4e5-47b45087869b}, ! Layer 1
  {3d133575-ec45-479e-9b7d-5828520e7eb2}; ! Layer 2

OS:Construction,
  {1d2c80af-c72d-4984-bbc5-8be603c6ec72}, ! Handle
  000 ExtSlabCarpet 4in ClimateZone 1-8,  ! Name
  {7bae279f-a289-4694-ac26-5a556bd6d25d}, ! Surface Rendering Name
  {e554b4d5-9806-4622-bd5d-cf19b067ac63}, ! Layer 1
  {3593aa29-509d-4541-bc90-55d6bc20a274}; ! Layer 2

OS:Construction,
  {cc260c55-549f-40bf-9552-ff45cebcf4ef}, ! Handle
  000 ExtSlabCarpet 8in ClimateZone 1-8,  ! Name
  {d814d9b4-b7a3-4c3b-9046-8200081e8e9d}, ! Surface Rendering Name
  {8afa97e2-cdf9-4b9b-b482-9f36b58e3df0}, ! Layer 1
  {3593aa29-509d-4541-bc90-55d6bc20a274}; ! Layer 2

OS:Construction,
  {cec3b319-4e1f-4e65-8a4f-09e8102e76bb}, ! Handle
  000 ExtSlab 4in ClimateZone 1-8,        ! Name
  {7623b45d-1afd-4e50-a5d4-8973e0f50839}, ! Surface Rendering Name
  {e554b4d5-9806-4622-bd5d-cf19b067ac63}; ! Layer 1

OS:Construction,
  {8bcb610f-f05b-4a68-9328-56d717cec878}, ! Handle
  000 ExtSlab 8in ClimateZone 1-8,        ! Name
  {6bcc9c6f-d160-46e8-84fe-925510531a02}, ! Surface Rendering Name
  {8afa97e2-cdf9-4b9b-b482-9f36b58e3df0}; ! Layer 1

OS:Construction,
  {be8bc3ea-c628-46f3-b27c-f055e4627e7d}, ! Handle
  000 Exterior Door,                      ! Name
  {d3a0f803-0902-4452-8351-44cb8ee5fa20}, ! Surface Rendering Name
  {1d218594-792b-458c-975b-cd7996781265}, ! Layer 1
  {b17db373-4e6e-4b7d-8516-c410024d24b1}; ! Layer 2

OS:Construction,
  {29a08e4c-fddd-4b98-af7c-fcd287ed072e}, ! Handle
  000 Exterior Floor,                     ! Name
  {cf93bb9a-a948-420e-8623-5dbd25e9063e}, ! Surface Rendering Name
  {af5b7091-c3f8-43a2-8649-aea656cff32a}, ! Layer 1
  {67eea8d7-e2f1-42c7-bf4c-18e4532c3836}; ! Layer 2

OS:Construction,
  {813415d1-f505-4e0c-953a-49af3e762d48}, ! Handle
  000 Exterior Roof,                      ! Name
  {2f5b9735-dd16-4c9b-aa29-d2a0aa0d89a6}, ! Surface Rendering Name
  {2be9922c-b8c7-43fc-b6fb-130ba70b23ad}, ! Layer 1
  {e5ef4582-1ed4-40f7-90f7-b948835c4680}, ! Layer 2
  {1f0b94e3-96e8-4759-9166-250e63a9c9c0}; ! Layer 3

OS:Construction,
  {6c7472d3-1e4d-47b4-8afb-6733094ed5d7}, ! Handle
  000 Exterior Wall,                      ! Name
  {61d98f2f-703b-40e0-a799-9de5b09dc770}, ! Surface Rendering Name
  {d9860975-db36-40d7-b55a-f0e141209648}, ! Layer 1
  {67eea8d7-e2f1-42c7-bf4c-18e4532c3836}, ! Layer 2
  {af5b7091-c3f8-43a2-8649-aea656cff32a}, ! Layer 3
  {efc63ac2-25cf-4878-8100-f1e2d1f7e2f5}, ! Layer 4
  {4fe86c6d-f73e-4893-b73f-ddf808c38106}; ! Layer 5

OS:Construction,
  {f65e76d6-1751-40e3-a281-c002c4db9fd2}, ! Handle
  000 Exterior Window,                    ! Name
  {4e3d8c9a-e205-4b43-97a1-9ed42b4426ed}, ! Surface Rendering Name
  {165e9f00-cc09-48c1-a4c2-8d6534c9a8c5}, ! Layer 1
  {aa07cd9d-3f86-4662-af87-f8a7f0077477}, ! Layer 2
  {165e9f00-cc09-48c1-a4c2-8d6534c9a8c5}; ! Layer 3

OS:Construction,
  {305c1cce-364a-4113-af8d-9f7f6db58322}, ! Handle
  000 Interior Ceiling,                   ! Name
  {dc72bc9f-18f7-440c-b7c2-fe001cfd1243}, ! Surface Rendering Name
  {2be9922c-b8c7-43fc-b6fb-130ba70b23ad}, ! Layer 1
  {e5ef4582-1ed4-40f7-90f7-b948835c4680}, ! Layer 2
  {1f0b94e3-96e8-4759-9166-250e63a9c9c0}; ! Layer 3

OS:Construction,
  {1ccc9476-7cb0-40f8-bffb-3d7f62f32c66}, ! Handle
  000 Interior Door,                      ! Name
  {cd92f89b-4f39-4135-b4a2-17275db6be50}, ! Surface Rendering Name
  {9e8fa22b-2f2c-4eb5-bc58-d1eb1139d1e2}; ! Layer 1

OS:Construction,
  {07092fd3-9719-4a3a-851a-61e694c7b2e6}, ! Handle
  000 Interior Floor,                     ! Name
  {77cbc9c8-66df-4480-8d8c-d5a4529f1e25}, ! Surface Rendering Name
  {1f0b94e3-96e8-4759-9166-250e63a9c9c0}, ! Layer 1
  {e5ef4582-1ed4-40f7-90f7-b948835c4680}, ! Layer 2
  {2be9922c-b8c7-43fc-b6fb-130ba70b23ad}; ! Layer 3

OS:Construction,
  {b122a21f-f3dd-4d2a-ada1-cd5335b3ad34}, ! Handle
  000 Interior Partition,                 ! Name
  {1210254c-7ac7-419d-a0ba-ce4fee5f6560}, ! Surface Rendering Name
  {9e8fa22b-2f2c-4eb5-bc58-d1eb1139d1e2}; ! Layer 1

OS:Construction,
  {e6ff48b6-cff2-4bb8-aed2-df3c527afd49}, ! Handle
  000 Interior Wall,                      ! Name
  {813d283b-bc32-489c-b121-283a449f2f77}, ! Surface Rendering Name
  {4fe86c6d-f73e-4893-b73f-ddf808c38106}, ! Layer 1
  {efc63ac2-25cf-4878-8100-f1e2d1f7e2f5}, ! Layer 2
  {4fe86c6d-f73e-4893-b73f-ddf808c38106}; ! Layer 3

OS:Construction,
  {bb83a44b-32be-4dca-a9de-4f3f4996a72f}, ! Handle
  000 Interior Window,                    ! Name
  {22291e90-630d-428d-b67b-05ecd302f0f3}, ! Surface Rendering Name
  {165e9f00-cc09-48c1-a4c2-8d6534c9a8c5}; ! Layer 1

OS:Construction,
  {eb533a9c-a1c2-4578-a32e-5f8e4cc87afe}, ! Handle
  ASHRAE 189.1-2009 AtticFloor ClimateZone 1-8, ! Name
  {ae99e112-c3ee-41d0-8bef-ee0758bc55b8}, ! Surface Rendering Name
  {a06a8b61-4792-4aee-bfa9-1bda55fcb204}, ! Layer 1
  {f540da24-ef80-427d-ad40-f8507345b349}, ! Layer 2
  {a06a8b61-4792-4aee-bfa9-1bda55fcb204}; ! Layer 3

OS:Construction,
  {977371f4-689a-41c6-8642-8f68aff9537c}, ! Handle
  ASHRAE 189.1-2009 ExtRoof IEAD ClimateZone 1, ! Name
  {8a992e70-c129-403b-8b13-93c9738bc546}, ! Surface Rendering Name
  {9d81a2c4-7250-4b7f-b4e5-47b45087869b}, ! Layer 1
  {31d26021-19ad-4a4d-a584-52dc9eb24335}, ! Layer 2
  {3d133575-ec45-479e-9b7d-5828520e7eb2}; ! Layer 3

OS:Construction,
  {16ca3b6f-5a0a-498e-bd42-63229111ebd8}, ! Handle
  ASHRAE 189.1-2009 ExtRoof IEAD ClimateZone 2-5, ! Name
  {4976e445-718a-404e-a33d-90431b9e5d21}, ! Surface Rendering Name
  {9d81a2c4-7250-4b7f-b4e5-47b45087869b}, ! Layer 1
  {de583ecd-8cdf-4470-be9c-15b83f7ae0f4}, ! Layer 2
  {3d133575-ec45-479e-9b7d-5828520e7eb2}; ! Layer 3

OS:Construction,
  {a8e21ad8-1c9d-4d7f-8664-133b46f7a330}, ! Handle
  ASHRAE 189.1-2009 ExtRoof IEAD ClimateZone 6, ! Name
  {5b498fa7-bba3-4431-9656-a98e927ab5f9}, ! Surface Rendering Name
  {9d81a2c4-7250-4b7f-b4e5-47b45087869b}, ! Layer 1
  {e387406e-bc63-4782-8f37-c622cdefed1a}, ! Layer 2
  {3d133575-ec45-479e-9b7d-5828520e7eb2}; ! Layer 3

OS:Construction,
  {1e828946-1550-434e-9fff-71b43ebfbc38}, ! Handle
  ASHRAE 189.1-2009 ExtRoof IEAD ClimateZone 7-8, ! Name
  {2ec6f8f3-9084-459e-9f03-aabb569e8e19}, ! Surface Rendering Name
  {9d81a2c4-7250-4b7f-b4e5-47b45087869b}, ! Layer 1
  {049623b3-7aca-46bf-a5b2-aaa27e8be5f4}, ! Layer 2
  {3d133575-ec45-479e-9b7d-5828520e7eb2}; ! Layer 3

OS:Construction,
  {ee069e4b-9bda-4ed4-b3c7-8ebcd2e7f175}, ! Handle
  ASHRAE 189.1-2009 ExtRoof Metal ClimateZone 1, ! Name
  {7844f75d-587b-41bf-899d-6a75b5418a2a}, ! Surface Rendering Name
  {fc972994-dd0e-4437-a233-1355903fd496}, ! Layer 1
  {20c8cf47-d89d-4538-813c-3f6e8520475c}; ! Layer 2

OS:Construction,
  {4bccd4be-3099-4217-b51f-b4af6cb4d169}, ! Handle
  ASHRAE 189.1-2009 ExtRoof Metal ClimateZone 2-5, ! Name
  {759d4320-98ad-459d-928d-676d7094d432}, ! Surface Rendering Name
  {fc972994-dd0e-4437-a233-1355903fd496}, ! Layer 1
  {28b93355-ffe3-4311-9fea-4b6673604390}; ! Layer 2

OS:Construction,
  {04f25b5d-ff56-467e-8bed-9a4f96cb00aa}, ! Handle
  ASHRAE 189.1-2009 ExtRoof Metal ClimateZone 6, ! Name
  {f3efafc1-09d6-4a78-a953-808a39c92dd3}, ! Surface Rendering Name
  {fc972994-dd0e-4437-a233-1355903fd496}, ! Layer 1
  {c8ffc22b-d016-4ebe-958c-5d6d2e47d0eb}; ! Layer 2

OS:Construction,
  {29b73155-292d-4557-984c-55329aa1f4c8}, ! Handle
  ASHRAE 189.1-2009 ExtRoof Metal ClimateZone 7-8, ! Name
  {8f58adca-a5ac-4d96-b313-ee029c51cbf9}, ! Surface Rendering Name
  {fc972994-dd0e-4437-a233-1355903fd496}, ! Layer 1
  {3442ccdb-832a-4e4b-a578-7f9ac6908079}; ! Layer 2

OS:Construction,
  {a50f5a7c-3892-4808-b4c6-0762dabbc4a2}, ! Handle
  ASHRAE 189.1-2009 ExtWall Mass ClimateZone 1, ! Name
  {0dc90870-35ba-4503-ab69-d1203b74ff16}, ! Surface Rendering Name
  {4cd4effd-5f1c-46b5-a07d-8a26ca4ca7e5}, ! Layer 1
  {85a770e5-d485-45d1-b263-003ded55d609}, ! Layer 2
  {a80d3ead-7a84-4c85-b4aa-8aa340918da0}, ! Layer 3
  {a06a8b61-4792-4aee-bfa9-1bda55fcb204}; ! Layer 4

OS:Construction,
  {9bd5244e-fc36-47e1-a96a-4f936c33a60c}, ! Handle
  ASHRAE 189.1-2009 ExtWall Mass ClimateZone 2, ! Name
  {ba034033-11ee-4894-856c-32d268c2fe48}, ! Surface Rendering Name
  {4cd4effd-5f1c-46b5-a07d-8a26ca4ca7e5}, ! Layer 1
  {85a770e5-d485-45d1-b263-003ded55d609}, ! Layer 2
  {4c012a31-4819-43e8-9e89-aaa84f968cdf}, ! Layer 3
  {a06a8b61-4792-4aee-bfa9-1bda55fcb204}; ! Layer 4

OS:Construction,
  {f22c7e8d-43ea-4428-9003-38797727c2d0}, ! Handle
  ASHRAE 189.1-2009 ExtWall Mass ClimateZone 3, ! Name
  {d2070426-24f1-4339-a28b-b7c43f5cb0e8}, ! Surface Rendering Name
  {4cd4effd-5f1c-46b5-a07d-8a26ca4ca7e5}, ! Layer 1
  {85a770e5-d485-45d1-b263-003ded55d609}, ! Layer 2
  {344c86df-4ad8-4b79-99c4-a9a82b13f479}, ! Layer 3
  {a06a8b61-4792-4aee-bfa9-1bda55fcb204}; ! Layer 4

OS:Construction,
  {a12eca10-ec96-4777-8238-7b52f59cd6a2}, ! Handle
  ASHRAE 189.1-2009 ExtWall Mass ClimateZone 4, ! Name
  {5a0f2c49-d318-4bc8-9c7c-b586e648bf1c}, ! Surface Rendering Name
  {4cd4effd-5f1c-46b5-a07d-8a26ca4ca7e5}, ! Layer 1
  {85a770e5-d485-45d1-b263-003ded55d609}, ! Layer 2
  {d42fdb74-e2b1-4c2c-9c0a-ee6bd2f85113}, ! Layer 3
  {a06a8b61-4792-4aee-bfa9-1bda55fcb204}; ! Layer 4

OS:Construction,
  {2f8e1f0c-04ad-490d-81f5-edf9c9d38d27}, ! Handle
  ASHRAE 189.1-2009 ExtWall Mass ClimateZone 5, ! Name
  {ae945c74-2815-4e9e-a0ba-0616bce0578e}, ! Surface Rendering Name
  {4cd4effd-5f1c-46b5-a07d-8a26ca4ca7e5}, ! Layer 1
  {85a770e5-d485-45d1-b263-003ded55d609}, ! Layer 2
  {8c2dbf29-4947-44a4-a5a8-739f38ac8450}, ! Layer 3
  {a06a8b61-4792-4aee-bfa9-1bda55fcb204}; ! Layer 4

OS:Construction,
  {74e7d05f-0ce7-4760-9e88-34615d70d3c3}, ! Handle
  ASHRAE 189.1-2009 ExtWall Mass ClimateZone 6, ! Name
  {a7472de2-df9b-444c-ba18-f44613e6983a}, ! Surface Rendering Name
  {4cd4effd-5f1c-46b5-a07d-8a26ca4ca7e5}, ! Layer 1
  {85a770e5-d485-45d1-b263-003ded55d609}, ! Layer 2
  {8b9d564a-0e35-4e32-b53c-e53afd802a3e}, ! Layer 3
  {a06a8b61-4792-4aee-bfa9-1bda55fcb204}; ! Layer 4

OS:Construction,
  {fe0a828c-db74-442c-a75d-f03952180ea3}, ! Handle
  ASHRAE 189.1-2009 ExtWall Mass ClimateZone 7-8, ! Name
  {f93eb886-3096-4dde-9fc7-fa3d289767ff}, ! Surface Rendering Name
  {4cd4effd-5f1c-46b5-a07d-8a26ca4ca7e5}, ! Layer 1
  {85a770e5-d485-45d1-b263-003ded55d609}, ! Layer 2
  {a19e4898-5fe5-480b-a8a4-7c29b605dcd3}, ! Layer 3
  {a06a8b61-4792-4aee-bfa9-1bda55fcb204}; ! Layer 4

OS:Construction,
  {8f20c459-4f3c-4481-bf89-78af2c7a0da0}, ! Handle
  ASHRAE 189.1-2009 ExtWall Mass ClimateZone alt-res 1, ! Name
  {2bb65d01-dad4-444d-b7b0-4816799d1144}, ! Surface Rendering Name
  {4cd4effd-5f1c-46b5-a07d-8a26ca4ca7e5}, ! Layer 1
  {85a770e5-d485-45d1-b263-003ded55d609}, ! Layer 2
  {4c012a31-4819-43e8-9e89-aaa84f968cdf}, ! Layer 3
  {a06a8b61-4792-4aee-bfa9-1bda55fcb204}; ! Layer 4

OS:Construction,
  {458b9490-8047-4b34-858f-d861ba50835e}, ! Handle
  ASHRAE 189.1-2009 ExtWall Mass ClimateZone alt-res 2, ! Name
  {55f61a60-7f16-473d-a185-fd9e8e250c06}, ! Surface Rendering Name
  {4cd4effd-5f1c-46b5-a07d-8a26ca4ca7e5}, ! Layer 1
  {85a770e5-d485-45d1-b263-003ded55d609}, ! Layer 2
  {344c86df-4ad8-4b79-99c4-a9a82b13f479}, ! Layer 3
  {a06a8b61-4792-4aee-bfa9-1bda55fcb204}; ! Layer 4

OS:Construction,
  {b17b8317-b420-44e0-b1f7-059c537ac7ce}, ! Handle
  ASHRAE 189.1-2009 ExtWall Mass ClimateZone alt-res 3, ! Name
  {81ca4376-a508-4c8c-847d-d70382485466}, ! Surface Rendering Name
  {4cd4effd-5f1c-46b5-a07d-8a26ca4ca7e5}, ! Layer 1
  {85a770e5-d485-45d1-b263-003ded55d609}, ! Layer 2
  {d42fdb74-e2b1-4c2c-9c0a-ee6bd2f85113}, ! Layer 3
  {a06a8b61-4792-4aee-bfa9-1bda55fcb204}; ! Layer 4

OS:Construction,
  {7aee0b96-f538-46fa-88fd-2ec5df095496}, ! Handle
  ASHRAE 189.1-2009 ExtWall Mass ClimateZone alt-res 4, ! Name
  {fad3dbc6-9b8a-40ce-8081-f814e16f28e3}, ! Surface Rendering Name
  {4cd4effd-5f1c-46b5-a07d-8a26ca4ca7e5}, ! Layer 1
  {85a770e5-d485-45d1-b263-003ded55d609}, ! Layer 2
  {8c2dbf29-4947-44a4-a5a8-739f38ac8450}, ! Layer 3
  {a06a8b61-4792-4aee-bfa9-1bda55fcb204}; ! Layer 4

OS:Construction,
  {a821dffe-af6c-4e47-b7a1-1c40d9aa6083}, ! Handle
  ASHRAE 189.1-2009 ExtWall Mass ClimateZone alt-res 5, ! Name
  {7486c56c-a900-403f-89a3-1e4eabfa8124}, ! Surface Rendering Name
  {4cd4effd-5f1c-46b5-a07d-8a26ca4ca7e5}, ! Layer 1
  {85a770e5-d485-45d1-b263-003ded55d609}, ! Layer 2
  {8b9d564a-0e35-4e32-b53c-e53afd802a3e}, ! Layer 3
  {a06a8b61-4792-4aee-bfa9-1bda55fcb204}; ! Layer 4

OS:Construction,
  {6967c5c6-c589-4c96-9482-bd2f8f0eb29f}, ! Handle
  ASHRAE 189.1-2009 ExtWall Mass ClimateZone alt-res 6, ! Name
  {23e60eec-9d05-4168-afb0-bc3cfa277da8}, ! Surface Rendering Name
  {4cd4effd-5f1c-46b5-a07d-8a26ca4ca7e5}, ! Layer 1
  {85a770e5-d485-45d1-b263-003ded55d609}, ! Layer 2
  {a19e4898-5fe5-480b-a8a4-7c29b605dcd3}, ! Layer 3
  {a06a8b61-4792-4aee-bfa9-1bda55fcb204}; ! Layer 4

OS:Construction,
  {f8071f3f-4038-4a14-96cd-c9195668d990}, ! Handle
  ASHRAE 189.1-2009 ExtWall Mass ClimateZone alt-res 7, ! Name
  {d6a7b659-e448-487b-aadd-160a3d87f6b1}, ! Surface Rendering Name
  {4cd4effd-5f1c-46b5-a07d-8a26ca4ca7e5}, ! Layer 1
  {85a770e5-d485-45d1-b263-003ded55d609}, ! Layer 2
  {a19e4898-5fe5-480b-a8a4-7c29b605dcd3}, ! Layer 3
  {a06a8b61-4792-4aee-bfa9-1bda55fcb204}; ! Layer 4

OS:Construction,
  {87d92f11-1a25-488c-b858-1361fdba93b0}, ! Handle
  ASHRAE 189.1-2009 ExtWall Mass ClimateZone alt-res 8, ! Name
  {8e7d04ac-0819-4907-941e-c1fa4494a8c6}, ! Surface Rendering Name
  {4cd4effd-5f1c-46b5-a07d-8a26ca4ca7e5}, ! Layer 1
  {85a770e5-d485-45d1-b263-003ded55d609}, ! Layer 2
  {8ff806a1-7f9c-44d1-9fd8-10fab2b3d86b}, ! Layer 3
  {a06a8b61-4792-4aee-bfa9-1bda55fcb204}; ! Layer 4

OS:Construction,
  {3fe162b3-9c72-4abe-8d2d-09d7025a0c61}, ! Handle
  ASHRAE 189.1-2009 ExtWall Metal ClimateZone 1-3, ! Name
  {5400731e-e096-4b6a-a3fa-9079d02cc13c}, ! Surface Rendering Name
  {301a24ff-69ed-468a-8ca5-2f2e2072ff1c}, ! Layer 1
  {76e750a0-a7e3-47bd-80ae-a931a7bf930f}, ! Layer 2
  {a06a8b61-4792-4aee-bfa9-1bda55fcb204}; ! Layer 3

OS:Construction,
  {56a6f610-77da-4bec-8c60-304c5f29193a}, ! Handle
  ASHRAE 189.1-2009 ExtWall Metal ClimateZone 4-8, ! Name
  {7a9f7259-6873-4a3a-8c3b-8d22d3501db9}, ! Surface Rendering Name
  {301a24ff-69ed-468a-8ca5-2f2e2072ff1c}, ! Layer 1
  {49c4b265-13e9-4279-82a4-ef3c5400eb76}, ! Layer 2
  {a06a8b61-4792-4aee-bfa9-1bda55fcb204}; ! Layer 3

OS:Construction,
  {45f51e73-925b-410b-ac89-a0e3467d0771}, ! Handle
  ASHRAE 189.1-2009 ExtWall SteelFrame ClimateZone 1-3, ! Name
  {7ed5eb98-f550-40f4-b8e9-c44844f1f7d0}, ! Surface Rendering Name
  {ddfb04c9-cb49-421c-b929-8922fd84bc14}, ! Layer 1
  {8d3443dd-9a8d-4e06-a8a5-ad2d9679b841}, ! Layer 2
  {a06a8b61-4792-4aee-bfa9-1bda55fcb204}; ! Layer 3

OS:Construction,
  {ce0f71d7-73c2-4a1e-b3d3-0e5440ca5296}, ! Handle
  ASHRAE 189.1-2009 ExtWall SteelFrame ClimateZone 4-8, ! Name
  {aa2fa94a-f5ed-4039-903b-f4a0811268a0}, ! Surface Rendering Name
  {ddfb04c9-cb49-421c-b929-8922fd84bc14}, ! Layer 1
  {9701a490-5af6-40fb-8bb6-2cd3dfab8fad}, ! Layer 2
  {a06a8b61-4792-4aee-bfa9-1bda55fcb204}; ! Layer 3

OS:Construction,
  {9d53e69c-861e-47b2-8469-a95979596900}, ! Handle
  ASHRAE 189.1-2009 ExtWall WoodFrame ClimateZone 1-4, ! Name
  {5f2b0115-75bf-4e9f-9d14-c1b9396f6261}, ! Surface Rendering Name
  {8ad01829-f7da-4786-8028-167a932883c3}, ! Layer 1
  {0e65f2b1-8ce4-4b8f-8150-be67a72396a0}, ! Layer 2
  {a06a8b61-4792-4aee-bfa9-1bda55fcb204}; ! Layer 3

OS:Construction,
  {36fa2ae1-6cc9-4493-bae7-c28762868b03}, ! Handle
  ASHRAE 189.1-2009 ExtWall WoodFrame ClimateZone 5, ! Name
  {5cd2f84d-2dfd-4573-bfc9-b2a77d0616d8}, ! Surface Rendering Name
  {8ad01829-f7da-4786-8028-167a932883c3}, ! Layer 1
  {fccd3bb6-cd7e-477f-bd00-e4bf7020e5b6}, ! Layer 2
  {a06a8b61-4792-4aee-bfa9-1bda55fcb204}; ! Layer 3

OS:Construction,
  {4d96b49c-5258-4da1-9383-5b3ab2a2d46f}, ! Handle
  ASHRAE 189.1-2009 ExtWall WoodFrame ClimateZone 6-8, ! Name
  {5dad2af1-dd1d-4b58-bc98-ba22c9f181f9}, ! Surface Rendering Name
  {8ad01829-f7da-4786-8028-167a932883c3}, ! Layer 1
  {41c10ec3-3e7e-4c92-9de3-4a91a6aeadec}, ! Layer 2
  {a06a8b61-4792-4aee-bfa9-1bda55fcb204}; ! Layer 3

OS:Construction,
  {c8099665-7d3b-4d7b-8d85-3f1a1b6e9c57}, ! Handle
  ASHRAE 189.1-2009 ExtWindow ClimateZone 1, ! Name
  {ab97b6e5-3903-43b9-aad1-d106c7abf6ef}, ! Surface Rendering Name
  {405af381-1ff5-45d2-9bca-871321956609}; ! Layer 1

OS:Construction,
  {425b7cb1-272c-4e02-a98f-161b07082b19}, ! Handle
  ASHRAE 189.1-2009 ExtWindow ClimateZone 2, ! Name
  {4ea48022-bbec-4218-b258-cf15497d76d7}, ! Surface Rendering Name
  {2cf9ce11-b74c-4b51-ab39-154dcc9d4771}; ! Layer 1

OS:Construction,
  {246363fd-0aca-4c06-9463-e96291924508}, ! Handle
  ASHRAE 189.1-2009 ExtWindow ClimateZone 3, ! Name
  {b4437797-7cef-4ceb-96d1-0570c6b264ae}, ! Surface Rendering Name
  {00d2aeb6-20c5-4970-93a6-6d60353270c7}; ! Layer 1

OS:Construction,
  {cb8c7d4e-9646-4d49-ab15-492be6063a6f}, ! Handle
  ASHRAE 189.1-2009 ExtWindow ClimateZone 4-5, ! Name
  {1da1acaa-abf2-4433-a050-2a2cbf45442b}, ! Surface Rendering Name
  {6e5b7a44-b8f1-463f-b75f-62bc6a4c0ede}; ! Layer 1

OS:Construction,
  {147eb040-250b-448b-8759-b552add3f4f5}, ! Handle
  ASHRAE 189.1-2009 ExtWindow ClimateZone 6, ! Name
  {56908274-fc3a-4d3d-bf2f-aaca6a9f96d2}, ! Surface Rendering Name
  {70760773-5fc1-4d08-8eef-ae2fbabb3d32}; ! Layer 1

OS:Construction,
  {a3f376a2-bdfc-4315-af96-7011df2f3924}, ! Handle
  ASHRAE 189.1-2009 ExtWindow ClimateZone 7-8, ! Name
  {4812629c-f75b-422f-b138-bd798604eb7b}, ! Surface Rendering Name
  {d3377fb1-b38b-4635-aa5f-f18ed80acf54}; ! Layer 1

OS:Construction,
  {10b6d6d6-792e-4e82-9d4c-9a1300540745}, ! Handle
  ASHRAE 189.1-2009 ExtWindow ClimateZone alt-res 4-5, ! Name
  {617f0af7-5f1d-48cf-9960-70851e9284f2}, ! Surface Rendering Name
  {70760773-5fc1-4d08-8eef-ae2fbabb3d32}; ! Layer 1

OS:Construction,
  {f96d6ecc-4d11-4dcc-995e-cb09c19e3a31}, ! Handle
  ASHRAE 90.1-2004 AtticFloor ClimateZone 1-5, ! Name
  {ae9fc8d2-7a15-4f5a-8c67-4583e48bcf73}, ! Surface Rendering Name
  {a06a8b61-4792-4aee-bfa9-1bda55fcb204}, ! Layer 1
  {b4b47bd6-95ee-47ee-ab56-bc441826b03c}, ! Layer 2
  {a06a8b61-4792-4aee-bfa9-1bda55fcb204}; ! Layer 3

OS:Construction,
  {7a9b0bda-5064-40f2-a9af-57bcb3732523}, ! Handle
  ASHRAE 90.1-2004 AtticFloor ClimateZone 6-8, ! Name
  {4f734284-54dd-47cf-88b4-16c51190397b}, ! Surface Rendering Name
  {a06a8b61-4792-4aee-bfa9-1bda55fcb204}, ! Layer 1
  {3349792b-38e7-4fa2-a666-a7d07edf14ba}, ! Layer 2
  {a06a8b61-4792-4aee-bfa9-1bda55fcb204}; ! Layer 3

OS:Construction,
  {86115717-6ac2-43f6-a75f-6ada902eb588}, ! Handle
  ASHRAE 90.1-2004 ExtRoof IEAD ClimateZone 1-4, ! Name
  {e921346c-db99-4133-9067-806085ec979b}, ! Surface Rendering Name
  {9d81a2c4-7250-4b7f-b4e5-47b45087869b}, ! Layer 1
  {f84c6785-3d37-4c66-99a9-3bff4334838e}, ! Layer 2
  {3d133575-ec45-479e-9b7d-5828520e7eb2}; ! Layer 3

OS:Construction,
  {fd03cbb3-1345-4e42-9a8c-589aaa532ee6}, ! Handle
  ASHRAE 90.1-2004 ExtRoof IEAD ClimateZone 5-6, ! Name
  {8a48315d-f678-4301-8484-4113d3b5bf9e}, ! Surface Rendering Name
  {9d81a2c4-7250-4b7f-b4e5-47b45087869b}, ! Layer 1
  {7af1df9e-4a42-4957-8b56-d9d80e015351}, ! Layer 2
  {3d133575-ec45-479e-9b7d-5828520e7eb2}; ! Layer 3

OS:Construction,
  {a5e66d6f-9309-4818-83a0-1229969c6918}, ! Handle
  ASHRAE 90.1-2004 ExtRoof IEAD ClimateZone 7, ! Name
  {8be96dd4-a335-40d8-8b25-f0c43816f7e8}, ! Surface Rendering Name
  {9d81a2c4-7250-4b7f-b4e5-47b45087869b}, ! Layer 1
  {f84c6785-3d37-4c66-99a9-3bff4334838e}, ! Layer 2
  {3d133575-ec45-479e-9b7d-5828520e7eb2}; ! Layer 3

OS:Construction,
  {60b9b486-9fea-4fa5-ba03-7a62df6530e1}, ! Handle
  ASHRAE 90.1-2004 ExtRoof IEAD ClimateZone 8, ! Name
  {fdbdd6c1-0a2f-43b2-a068-d0e41631ea7d}, ! Surface Rendering Name
  {9d81a2c4-7250-4b7f-b4e5-47b45087869b}, ! Layer 1
  {5dc32f3b-fcea-4d2a-96ce-b840610baf65}, ! Layer 2
  {3d133575-ec45-479e-9b7d-5828520e7eb2}; ! Layer 3

OS:Construction,
  {2d051e52-346a-4aec-aec7-d2892f57fc9e}, ! Handle
  ASHRAE 90.1-2004 ExtRoof Metal ClimateZone 1, ! Name
  {0f837524-9b4a-4547-bef4-b29285d9d3c8}, ! Surface Rendering Name
  {fc972994-dd0e-4437-a233-1355903fd496}; ! Layer 1

OS:Construction,
  {ad5c12d5-e522-470c-ba46-04891eb1b756}, ! Handle
  ASHRAE 90.1-2004 ExtRoof Metal ClimateZone 2, ! Name
  {feaeecac-56e4-4538-b080-9a2a15914e6d}, ! Surface Rendering Name
  {fc972994-dd0e-4437-a233-1355903fd496}, ! Layer 1
  {44f248c4-37da-42ad-8773-1bf3e9ab646b}; ! Layer 2

OS:Construction,
  {73c91f6b-7559-469e-b824-6bb0f4711c71}, ! Handle
  ASHRAE 90.1-2004 ExtRoof Metal ClimateZone 3-4, ! Name
  {66a12368-1a32-4d8b-b5e7-6ec79de79af0}, ! Surface Rendering Name
  {fc972994-dd0e-4437-a233-1355903fd496}, ! Layer 1
  {47438003-dd17-400b-9a25-727cda295f7c}; ! Layer 2

OS:Construction,
  {5b2cfdb5-4ff8-4397-9dc9-0deb0020e764}, ! Handle
  ASHRAE 90.1-2004 ExtRoof Metal ClimateZone 5-6, ! Name
  {c7631f0a-0e54-4165-b863-813007dbc8c7}, ! Surface Rendering Name
  {fc972994-dd0e-4437-a233-1355903fd496}, ! Layer 1
  {2ecd27a2-6bf0-4359-9c23-e67031970553}; ! Layer 2

OS:Construction,
  {ff84e539-03b3-48d8-aee7-376fb6d1565f}, ! Handle
  ASHRAE 90.1-2004 ExtRoof Metal ClimateZone 7, ! Name
  {114de8bc-a767-4ffe-8208-1e3615aa9fc0}, ! Surface Rendering Name
  {fc972994-dd0e-4437-a233-1355903fd496}, ! Layer 1
  {47438003-dd17-400b-9a25-727cda295f7c}; ! Layer 2

OS:Construction,
  {05f078ce-d548-4971-9732-f44885398a09}, ! Handle
  ASHRAE 90.1-2004 ExtRoof Metal ClimateZone 8, ! Name
  {c2ac665d-dcc6-4355-b799-bf3c1c0fcc09}, ! Surface Rendering Name
  {fc972994-dd0e-4437-a233-1355903fd496}, ! Layer 1
  {8b3150a6-4f07-40e2-ba11-dce1bf83169b}; ! Layer 2

OS:Construction,
  {80767779-8344-43f0-ba90-ed9029bc6e27}, ! Handle
  ASHRAE 90.1-2004 ExtWall Mass ClimateZone 1-2, ! Name
  {45e1dcc5-591f-4946-bbf5-05607f4244f2}, ! Surface Rendering Name
  {4cd4effd-5f1c-46b5-a07d-8a26ca4ca7e5}, ! Layer 1
  {dd24ae63-11e1-4cd9-9939-7aae784324d8}, ! Layer 2
  {a06a8b61-4792-4aee-bfa9-1bda55fcb204}; ! Layer 3

OS:Construction,
  {eaf52fe1-7221-4d0b-9d42-f35d07576843}, ! Handle
  ASHRAE 90.1-2004 ExtWall Mass ClimateZone 3-4, ! Name
  {7d7e2bfd-f9a7-4d13-9ae4-80c00bf7a742}, ! Surface Rendering Name
  {4cd4effd-5f1c-46b5-a07d-8a26ca4ca7e5}, ! Layer 1
  {dd24ae63-11e1-4cd9-9939-7aae784324d8}, ! Layer 2
  {d901e9ce-e0ad-4727-a22e-c98d3ff2ad3d}, ! Layer 3
  {a06a8b61-4792-4aee-bfa9-1bda55fcb204}; ! Layer 4

OS:Construction,
  {6ed9efd0-1fc6-4d54-864f-2073fca44a42}, ! Handle
  ASHRAE 90.1-2004 ExtWall Mass ClimateZone 5, ! Name
  {b92b35cb-01e6-4ab9-9655-82643f140b76}, ! Surface Rendering Name
  {4cd4effd-5f1c-46b5-a07d-8a26ca4ca7e5}, ! Layer 1
  {dd24ae63-11e1-4cd9-9939-7aae784324d8}, ! Layer 2
  {3683b4f9-ea08-4624-9f6d-b52efc0262d0}, ! Layer 3
  {a06a8b61-4792-4aee-bfa9-1bda55fcb204}; ! Layer 4

OS:Construction,
  {42e42dfb-b154-45f0-a7cc-2d45bb907cc0}, ! Handle
  ASHRAE 90.1-2004 ExtWall Mass ClimateZone 6, ! Name
  {88bab52e-b838-4a40-870c-f7db3fb30e6e}, ! Surface Rendering Name
  {4cd4effd-5f1c-46b5-a07d-8a26ca4ca7e5}, ! Layer 1
  {dd24ae63-11e1-4cd9-9939-7aae784324d8}, ! Layer 2
  {18de8fd5-ce43-4dfb-86a4-7ae97ca77b36}, ! Layer 3
  {a06a8b61-4792-4aee-bfa9-1bda55fcb204}; ! Layer 4

OS:Construction,
  {c0067702-8df2-47a5-a6d4-031ac377067a}, ! Handle
  ASHRAE 90.1-2004 ExtWall Mass ClimateZone 7, ! Name
  {fbd85bef-0824-4ac4-bcb7-023d2b668fd5}, ! Surface Rendering Name
  {4cd4effd-5f1c-46b5-a07d-8a26ca4ca7e5}, ! Layer 1
  {dd24ae63-11e1-4cd9-9939-7aae784324d8}, ! Layer 2
  {2a062da2-674a-4ec6-bed2-7b1317449d3a}, ! Layer 3
  {a06a8b61-4792-4aee-bfa9-1bda55fcb204}; ! Layer 4

OS:Construction,
  {6ac4ee74-30db-4ce6-8a40-0141bff6ec01}, ! Handle
  ASHRAE 90.1-2004 ExtWall Mass ClimateZone 8, ! Name
  {40f3bfef-bf87-49ab-8404-488a213a36c4}, ! Surface Rendering Name
  {4cd4effd-5f1c-46b5-a07d-8a26ca4ca7e5}, ! Layer 1
  {dd24ae63-11e1-4cd9-9939-7aae784324d8}, ! Layer 2
  {c04e605c-13b9-4d84-8928-6246e812f5e6}, ! Layer 3
  {a06a8b61-4792-4aee-bfa9-1bda55fcb204}; ! Layer 4

OS:Construction,
  {6f584301-e880-42c8-8677-a4aa51c2dffa}, ! Handle
  ASHRAE 90.1-2004 ExtWall Mass ClimateZone alt-res 1-2, ! Name
  {e93362f6-cd75-465d-badb-8772a9a878dc}, ! Surface Rendering Name
  {4cd4effd-5f1c-46b5-a07d-8a26ca4ca7e5}, ! Layer 1
  {dd24ae63-11e1-4cd9-9939-7aae784324d8}, ! Layer 2
  {d901e9ce-e0ad-4727-a22e-c98d3ff2ad3d}, ! Layer 3
  {a06a8b61-4792-4aee-bfa9-1bda55fcb204}; ! Layer 4

OS:Construction,
  {bef36c22-102a-44dc-950b-77cdf59fa055}, ! Handle
  ASHRAE 90.1-2004 ExtWall Mass ClimateZone alt-res 3, ! Name
  {668374ea-48a1-404b-b05e-6b526689ec1d}, ! Surface Rendering Name
  {4cd4effd-5f1c-46b5-a07d-8a26ca4ca7e5}, ! Layer 1
  {dd24ae63-11e1-4cd9-9939-7aae784324d8}, ! Layer 2
  {3683b4f9-ea08-4624-9f6d-b52efc0262d0}, ! Layer 3
  {a06a8b61-4792-4aee-bfa9-1bda55fcb204}; ! Layer 4

OS:Construction,
  {40b9761a-604e-44e5-89fc-b968926485bc}, ! Handle
  ASHRAE 90.1-2004 ExtWall Mass ClimateZone alt-res 4, ! Name
  {f8b15c3c-f345-4aff-ae1c-b30291af6ae1}, ! Surface Rendering Name
  {4cd4effd-5f1c-46b5-a07d-8a26ca4ca7e5}, ! Layer 1
  {dd24ae63-11e1-4cd9-9939-7aae784324d8}, ! Layer 2
  {18de8fd5-ce43-4dfb-86a4-7ae97ca77b36}, ! Layer 3
  {a06a8b61-4792-4aee-bfa9-1bda55fcb204}; ! Layer 4

OS:Construction,
  {9571c8d7-72ac-4034-9e91-7b4b350d835f}, ! Handle
  ASHRAE 90.1-2004 ExtWall Mass ClimateZone alt-res 5-6, ! Name
  {ab8dbd3a-a4c1-43cd-9ab7-6e6ba514b9e8}, ! Surface Rendering Name
  {4cd4effd-5f1c-46b5-a07d-8a26ca4ca7e5}, ! Layer 1
  {dd24ae63-11e1-4cd9-9939-7aae784324d8}, ! Layer 2
  {2a062da2-674a-4ec6-bed2-7b1317449d3a}, ! Layer 3
  {a06a8b61-4792-4aee-bfa9-1bda55fcb204}; ! Layer 4

OS:Construction,
  {d9730ea2-2791-4821-9e8d-96e3204035e2}, ! Handle
  ASHRAE 90.1-2004 ExtWall Mass ClimateZone alt-res 7, ! Name
  {75dcefd3-517a-4efa-ba1a-70a1b1aca1c0}, ! Surface Rendering Name
  {4cd4effd-5f1c-46b5-a07d-8a26ca4ca7e5}, ! Layer 1
  {dd24ae63-11e1-4cd9-9939-7aae784324d8}, ! Layer 2
  {c04e605c-13b9-4d84-8928-6246e812f5e6}, ! Layer 3
  {a06a8b61-4792-4aee-bfa9-1bda55fcb204}; ! Layer 4

OS:Construction,
  {8247d411-7552-403d-99ea-2ad0ae6df19d}, ! Handle
  ASHRAE 90.1-2004 ExtWall Mass ClimateZone alt-res 8, ! Name
  {19194a1d-e464-4609-a589-e7a2a05c0cfe}, ! Surface Rendering Name
  {4cd4effd-5f1c-46b5-a07d-8a26ca4ca7e5}, ! Layer 1
  {dd24ae63-11e1-4cd9-9939-7aae784324d8}, ! Layer 2
  {e7e84922-5a9e-48a5-a9e5-afd9baa53d1d}, ! Layer 3
  {a06a8b61-4792-4aee-bfa9-1bda55fcb204}; ! Layer 4

OS:Construction,
  {27e1a3aa-64e1-4f56-90cb-cf39b41532f9}, ! Handle
  ASHRAE 90.1-2004 ExtWall Metal ClimateZone 1, ! Name
  {1421f1b7-085d-4154-a2b6-fac857076801}, ! Surface Rendering Name
  {301a24ff-69ed-468a-8ca5-2f2e2072ff1c}, ! Layer 1
  {a06a8b61-4792-4aee-bfa9-1bda55fcb204}; ! Layer 2

OS:Construction,
  {96d46661-9340-4023-874e-0c4d5d2e3914}, ! Handle
  ASHRAE 90.1-2004 ExtWall Metal ClimateZone 2-3, ! Name
  {5f58ba6c-8132-413b-91d3-35d370a9253c}, ! Surface Rendering Name
  {301a24ff-69ed-468a-8ca5-2f2e2072ff1c}, ! Layer 1
  {83bbe90d-602f-4224-9893-83136b51bf4d}, ! Layer 2
  {a06a8b61-4792-4aee-bfa9-1bda55fcb204}; ! Layer 3

OS:Construction,
  {1c35925d-2192-410f-b839-92dc55b8ada6}, ! Handle
  ASHRAE 90.1-2004 ExtWall Metal ClimateZone 4, ! Name
  {70350214-8af5-4d2c-a46d-108f5f9d2f92}, ! Surface Rendering Name
  {301a24ff-69ed-468a-8ca5-2f2e2072ff1c}, ! Layer 1
  {fb697fab-8967-4d6e-80b1-74d1e710f97a}, ! Layer 2
  {a06a8b61-4792-4aee-bfa9-1bda55fcb204}; ! Layer 3

OS:Construction,
  {239a9a4a-3dff-43b5-ada6-6642b855fa49}, ! Handle
  ASHRAE 90.1-2004 ExtWall Metal ClimateZone 5, ! Name
  {9c054d76-e292-4f75-95ac-375b2276806a}, ! Surface Rendering Name
  {301a24ff-69ed-468a-8ca5-2f2e2072ff1c}, ! Layer 1
  {a9ff92d5-25f5-4f59-a507-2af6536d5ebc}, ! Layer 2
  {a06a8b61-4792-4aee-bfa9-1bda55fcb204}; ! Layer 3

OS:Construction,
  {48539533-a935-43c1-9c54-0b70fb335385}, ! Handle
  ASHRAE 90.1-2004 ExtWall Metal ClimateZone 6-8, ! Name
  {f8a91a38-ff32-45da-b4cd-cee4a1bc3ba2}, ! Surface Rendering Name
  {301a24ff-69ed-468a-8ca5-2f2e2072ff1c}, ! Layer 1
  {3d460e61-5e0a-40f6-b397-bf8990c81085}, ! Layer 2
  {a06a8b61-4792-4aee-bfa9-1bda55fcb204}; ! Layer 3

OS:Construction,
  {69c0432a-a291-42fe-967d-79fb70e6f68b}, ! Handle
  ASHRAE 90.1-2004 ExtWall SteelFrame ClimateZone 1-4, ! Name
  {7f007c93-c5ee-439c-bc52-21c8f948c4d2}, ! Surface Rendering Name
  {8ad01829-f7da-4786-8028-167a932883c3}, ! Layer 1
  {5345e826-350b-4b9e-b3a0-687082089267}, ! Layer 2
  {a06a8b61-4792-4aee-bfa9-1bda55fcb204}; ! Layer 3

OS:Construction,
  {8dbd7e3e-62fc-4d8b-81eb-32251586ffe4}, ! Handle
  ASHRAE 90.1-2004 ExtWall SteelFrame ClimateZone 5-6, ! Name
  {b455493b-cf36-496d-b6c8-16c0685575ee}, ! Surface Rendering Name
  {8ad01829-f7da-4786-8028-167a932883c3}, ! Layer 1
  {d5a9b5b8-e008-4a7a-925f-948053eb59b2}, ! Layer 2
  {a06a8b61-4792-4aee-bfa9-1bda55fcb204}; ! Layer 3

OS:Construction,
  {30ac70f8-4997-4d5e-b52d-01267d095c8f}, ! Handle
  ASHRAE 90.1-2004 ExtWall SteelFrame ClimateZone 7-8, ! Name
  {833e8d8b-56c8-4ea7-adcf-a5adf38b6904}, ! Surface Rendering Name
  {8ad01829-f7da-4786-8028-167a932883c3}, ! Layer 1
  {8a2cd04f-bd95-490d-82e2-1b8453cca103}, ! Layer 2
  {a06a8b61-4792-4aee-bfa9-1bda55fcb204}; ! Layer 3
