
OS:Version,
  {0d4506c4-a5a5-4cb2-8b33-248b70cf82c9}, !- Handle
  2.8.0;                                  !- Version Identifier

OS:ClimateZones,
  {135edfab-17e7-40db-a436-27d385a8cd6d}, !- Handle
  ,                                       !- Active Institution
  ,                                       !- Active Year
  ASHRAE,                                 !- Climate Zone Institution Name 1
  ANSI/ASHRAE Standard 169,               !- Climate Zone Document Name 1
  2006,                                   !- Climate Zone Document Year 1
  ,                                       !- Climate Zone Value 1
  CEC,                                    !- Climate Zone Institution Name 2
  California Climate Zone Descriptions,   !- Climate Zone Document Name 2
  1995,                                   !- Climate Zone Document Year 2
  ;                                       !- Climate Zone Value 2

OS:YearDescription,
  {513d8dda-86cb-442a-b01c-1f7f0e0ac70e}; !- Handle

OS:RadianceParameters,
  {270a96f1-3c86-4b75-a667-cdf22790e2c8}, !- Handle
  1,                                      !- Accumulated Rays per Record
  0,                                      !- Direct Threshold
  1,                                      !- Direct Certainty
  1,                                      !- Direct Jitter
  1,                                      !- Direct Pretest
  6,                                      !- Ambient Bounces VMX
  2,                                      !- Ambient Bounces DMX
  4050,                                   !- Ambient Divisions VMX
  512,                                    !- Ambient Divisions DMX
  256,                                    !- Ambient Supersamples
  0.001,                                  !- Limit Weight VMX
  0.001,                                  !- Limit Weight DMX
  500,                                    !- Klems Sampling Density
  146;                                    !- Sky Discretization Resolution

OS:SimulationControl,
  {2c487a4c-bac9-4ac5-b669-1e49d9da7c2b}; !- Handle

OS:Sizing:Parameters,
  {dde5af6f-7923-4600-a28a-7556673a0266}, !- Handle
  1.25,                                   !- Heating Sizing Factor
  1.15;                                   !- Cooling Sizing Factor

OS:ProgramControl,
  {05027a99-f2b3-4aeb-afc6-1425fbb4371d}; !- Handle

OS:Timestep,
  {4ebc9f1e-4707-402e-9844-67eb1ffbd522}, !- Handle
  6;                                      !- Number of Timesteps per Hour

OS:OutputControl:ReportingTolerances,
  {65797aa2-06a9-45fe-b69d-bc6e060399d3}; !- Handle

OS:ConvergenceLimits,
  {9fc11aba-8822-4f3d-970c-46391ba4040d}; !- Handle

OS:ShadowCalculation,
  {ca758bea-4416-4626-9bba-3d8795c79bd6}, !- Handle
  7,                                      !- Calculation Frequency
  15000;                                  !- Maximum Figures in Shadow Overlap Calculations

OS:SurfaceConvectionAlgorithm:Inside,
  {aaabfc36-718a-4ab0-b622-f186ebb45230}, !- Handle
  TARP;                                   !- Algorithm

OS:SurfaceConvectionAlgorithm:Outside,
  {9a0a9f6f-4bbd-4b12-a121-9492a1fcd7d6}, !- Handle
  DOE-2;                                  !- Algorithm

OS:HeatBalanceAlgorithm,
  {9d93e563-e1e0-46d7-9e39-d1c8aceb7212}, !- Handle
  ConductionTransferFunction,             !- Algorithm
  200;                                    !- Surface Temperature Upper Limit {C}

OS:ZoneAirHeatBalanceAlgorithm,
  {8520d93e-310f-4696-9bcd-36228bfdd743}, !- Handle
  AnalyticalSolution;                     !- Algorithm

OS:ZoneAirContaminantBalance,
  {eb5fc3ae-fb22-4160-8fcb-3e3b22b000d3}; !- Handle

OS:ZoneCapacitanceMultiplier:ResearchSpecial,
  {4020ce4f-5a7a-4849-8028-8305d7b751b1}, !- Handle
  ,                                       !- Temperature Capacity Multiplier
  ,                                       !- Humidity Capacity Multiplier
  ;                                       !- Carbon Dioxide Capacity Multiplier

OS:RunPeriod,
  {28df894d-6af9-4fb8-8f56-df1753344aa3}, !- Handle
  Run Period 1,                           !- Name
  1,                                      !- Begin Month
  1,                                      !- Begin Day of Month
  12,                                     !- End Month
  31,                                     !- End Day of Month
  ,                                       !- Use Weather File Holidays and Special Days
  ,                                       !- Use Weather File Daylight Saving Period
  ,                                       !- Apply Weekend Holiday Rule
  ,                                       !- Use Weather File Rain Indicators
  ,                                       !- Use Weather File Snow Indicators
  ;                                       !- Number of Times Runperiod to be Repeated

OS:Building,
  {bf305633-c5a1-4881-9edf-ca5e1a8e1274}, !- Handle
  Building 1,                             !- Name
  ,                                       !- Building Sector Type
  ,                                       !- North Axis {deg}
  ,                                       !- Nominal Floor to Floor Height {m}
  ,                                       !- Space Type Name
  ,                                       !- Default Construction Set Name
  ;                                       !- Default Schedule Set Name

OS:SpaceType,
  {68eb772d-ca33-4e27-80ee-1e23dd3f62d8}, !- Handle
  RetailStandalone Back_Space - 90.1-2007, !- Name
  ,                                       !- Default Construction Set Name
  {f00cdd94-628e-4f06-a6a3-368631f71a09}, !- Default Schedule Set Name
  ,                                       !- Group Rendering Name
  {1b96904e-8dc1-4a42-b547-d1cc6b99d054}, !- Design Specification Outdoor Air Object Name
  ,                                       !- Standards Template
  RetailStandalone,                       !- Standards Building Type
  Back_Space;                             !- Standards Space Type

OS:DesignSpecification:OutdoorAir,
  {1b96904e-8dc1-4a42-b547-d1cc6b99d054}, !- Handle
  RetailStandalone Back_Space Ventilation, !- Name
  ,                                       !- Outdoor Air Method
  0,                                      !- Outdoor Air Flow per Person {m3/s-person}
  0,                                      !- Outdoor Air Flow per Floor Area {m3/s-m2}
  ,                                       !- Outdoor Air Flow Rate {m3/s}
  0,                                      !- Outdoor Air Flow Air Changes per Hour {1/hr}
  ;                                       !- Outdoor Air Flow Rate Fraction Schedule Name

OS:DefaultScheduleSet,
  {f00cdd94-628e-4f06-a6a3-368631f71a09}, !- Handle
  RetailStandalone Back_Space Schedule Set, !- Name
  ,                                       !- Hours of Operation Schedule Name
  ,                                       !- Number of People Schedule Name
  ,                                       !- People Activity Level Schedule Name
  ,                                       !- Lighting Schedule Name
  ,                                       !- Electric Equipment Schedule Name
  ,                                       !- Gas Equipment Schedule Name
  ,                                       !- Hot Water Equipment Schedule Name
  ,                                       !- Infiltration Schedule Name
  ,                                       !- Steam Equipment Schedule Name
  ;                                       !- Other Equipment Schedule Name

OS:ThermostatSetpoint:DualSetpoint,
  {64ff5a7f-1216-469a-95ed-fdfff1dd05d5}, !- Handle
  RetailStandalone Back_Space Thermostat; !- Name

OS:SpaceType,
  {b6430f3c-39bb-4685-886e-31bfdd45a933}, !- Handle
  RetailStandalone Entry - 90.1-2007,     !- Name
  ,                                       !- Default Construction Set Name
  {8eae719b-73ba-4cb6-a70c-e4f7109db0aa}, !- Default Schedule Set Name
  ,                                       !- Group Rendering Name
  {f7e57af8-49db-477d-9694-cf8afc6db540}, !- Design Specification Outdoor Air Object Name
  ,                                       !- Standards Template
  RetailStandalone,                       !- Standards Building Type
  Entry;                                  !- Standards Space Type

OS:DesignSpecification:OutdoorAir,
  {f7e57af8-49db-477d-9694-cf8afc6db540}, !- Handle
  RetailStandalone Entry Ventilation,     !- Name
  ,                                       !- Outdoor Air Method
  0,                                      !- Outdoor Air Flow per Person {m3/s-person}
  0,                                      !- Outdoor Air Flow per Floor Area {m3/s-m2}
  ,                                       !- Outdoor Air Flow Rate {m3/s}
  0,                                      !- Outdoor Air Flow Air Changes per Hour {1/hr}
  ;                                       !- Outdoor Air Flow Rate Fraction Schedule Name

OS:DefaultScheduleSet,
  {8eae719b-73ba-4cb6-a70c-e4f7109db0aa}, !- Handle
  RetailStandalone Entry Schedule Set,    !- Name
  ,                                       !- Hours of Operation Schedule Name
  ,                                       !- Number of People Schedule Name
  ,                                       !- People Activity Level Schedule Name
  ,                                       !- Lighting Schedule Name
  ,                                       !- Electric Equipment Schedule Name
  ,                                       !- Gas Equipment Schedule Name
  ,                                       !- Hot Water Equipment Schedule Name
  ,                                       !- Infiltration Schedule Name
  ,                                       !- Steam Equipment Schedule Name
  ;                                       !- Other Equipment Schedule Name

OS:ThermostatSetpoint:DualSetpoint,
  {b0fb3353-d0ea-4336-a0a6-7565563108f7}, !- Handle
  RetailStandalone Entry Thermostat;      !- Name

OS:SpaceType,
  {0402d204-d43c-454d-9c30-b302ae2d18bf}, !- Handle
  RetailStandalone Point_of_Sale - 90.1-2007, !- Name
  ,                                       !- Default Construction Set Name
  {1a603812-82f6-4952-b42d-b642e3a76a98}, !- Default Schedule Set Name
  ,                                       !- Group Rendering Name
  {533b348d-fa3a-4a00-8728-514b5fd8bd12}, !- Design Specification Outdoor Air Object Name
  ,                                       !- Standards Template
  RetailStandalone,                       !- Standards Building Type
  Point_of_Sale;                          !- Standards Space Type

OS:DesignSpecification:OutdoorAir,
  {533b348d-fa3a-4a00-8728-514b5fd8bd12}, !- Handle
  RetailStandalone Point_of_Sale Ventilation, !- Name
  ,                                       !- Outdoor Air Method
  0,                                      !- Outdoor Air Flow per Person {m3/s-person}
  0,                                      !- Outdoor Air Flow per Floor Area {m3/s-m2}
  ,                                       !- Outdoor Air Flow Rate {m3/s}
  0,                                      !- Outdoor Air Flow Air Changes per Hour {1/hr}
  ;                                       !- Outdoor Air Flow Rate Fraction Schedule Name

OS:DefaultScheduleSet,
  {1a603812-82f6-4952-b42d-b642e3a76a98}, !- Handle
  RetailStandalone Point_of_Sale Schedule Set, !- Name
  ,                                       !- Hours of Operation Schedule Name
  ,                                       !- Number of People Schedule Name
  ,                                       !- People Activity Level Schedule Name
  ,                                       !- Lighting Schedule Name
  ,                                       !- Electric Equipment Schedule Name
  ,                                       !- Gas Equipment Schedule Name
  ,                                       !- Hot Water Equipment Schedule Name
  ,                                       !- Infiltration Schedule Name
  ,                                       !- Steam Equipment Schedule Name
  ;                                       !- Other Equipment Schedule Name

OS:ThermostatSetpoint:DualSetpoint,
  {c8a11eed-99b0-4fac-a0a7-5a41354559ee}, !- Handle
  RetailStandalone Point_of_Sale Thermostat; !- Name

OS:SpaceType,
  {04f24ea6-a106-4ae0-9664-35299e9f8f3c}, !- Handle
  RetailStandalone Retail - 90.1-2007,    !- Name
  ,                                       !- Default Construction Set Name
  {ab71213c-d14f-4e0f-a690-aaed551d81c0}, !- Default Schedule Set Name
  ,                                       !- Group Rendering Name
  {0e292c26-ceb0-43f6-a6a5-ee7389e9af1c}, !- Design Specification Outdoor Air Object Name
  ,                                       !- Standards Template
  RetailStandalone,                       !- Standards Building Type
  Retail;                                 !- Standards Space Type

OS:DesignSpecification:OutdoorAir,
  {0e292c26-ceb0-43f6-a6a5-ee7389e9af1c}, !- Handle
  RetailStandalone Retail Ventilation,    !- Name
  ,                                       !- Outdoor Air Method
  0,                                      !- Outdoor Air Flow per Person {m3/s-person}
  0,                                      !- Outdoor Air Flow per Floor Area {m3/s-m2}
  ,                                       !- Outdoor Air Flow Rate {m3/s}
  0,                                      !- Outdoor Air Flow Air Changes per Hour {1/hr}
  ;                                       !- Outdoor Air Flow Rate Fraction Schedule Name

OS:DefaultScheduleSet,
  {ab71213c-d14f-4e0f-a690-aaed551d81c0}, !- Handle
  RetailStandalone Retail Schedule Set,   !- Name
  ,                                       !- Hours of Operation Schedule Name
  ,                                       !- Number of People Schedule Name
  ,                                       !- People Activity Level Schedule Name
  ,                                       !- Lighting Schedule Name
  ,                                       !- Electric Equipment Schedule Name
  ,                                       !- Gas Equipment Schedule Name
  ,                                       !- Hot Water Equipment Schedule Name
  ,                                       !- Infiltration Schedule Name
  ,                                       !- Steam Equipment Schedule Name
  ;                                       !- Other Equipment Schedule Name

OS:ThermostatSetpoint:DualSetpoint,
  {c53754ad-17b7-4ebc-8fa2-6b8be2627dc5}, !- Handle
  RetailStandalone Retail Thermostat;     !- Name

OS:DefaultConstructionSet,
  {b87ed3d8-eb32-4980-ae79-a7230d658e94}, !- Handle
  90.1-2007 - Retail - ASHRAE 169-2006-5A, !- Name
  {bf2e2df6-f765-4a05-8d17-e29262f9499b}, !- Default Exterior Surface Constructions Name
  {8f7ff021-a35a-46c3-b848-f03e9a4c1912}, !- Default Interior Surface Constructions Name
  {feef56ae-a12d-4cc9-b1d8-3e3064d5f072}, !- Default Ground Contact Surface Constructions Name
  {f851c75e-9037-4119-8821-b3c82fd7a13e}, !- Default Exterior SubSurface Constructions Name
  {4efa7256-298e-45b7-a5e6-0096c1b2c777}, !- Default Interior SubSurface Constructions Name
  {0d25e243-6e6e-4bcb-8c6b-e61eb37f1111}, !- Interior Partition Construction Name
  ,                                       !- Space Shading Construction Name
  ,                                       !- Building Shading Construction Name
  ,                                       !- Site Shading Construction Name
  ;                                       !- Adiabatic Surface Construction Name

OS:DefaultSurfaceConstructions,
  {bf2e2df6-f765-4a05-8d17-e29262f9499b}, !- Handle
  Default Surface Constructions 1,        !- Name
  {664ef204-6938-4dba-bedd-96cec5a19d50}, !- Floor Construction Name
  {1e0537cd-ed05-47b6-b6b6-154b31ec7d11}, !- Wall Construction Name
  {933516d8-fff3-44d2-8807-2b383f68b441}; !- Roof Ceiling Construction Name

OS:Construction,
  {664ef204-6938-4dba-bedd-96cec5a19d50}, !- Handle
  Typical Insulated Exterior Mass Floor R-13.51, !- Name
  ,                                       !- Surface Rendering Name
  {caa2bc85-73ed-419e-9dea-235facc4edba}, !- Layer 1
  {b5def4d5-8b82-412e-a3ad-91f3bfaad38d}, !- Layer 2
  {a1324651-8275-4e78-93c1-7ec2688358a6}; !- Layer 3

OS:StandardsInformation:Construction,
  {4e799c1b-5c91-4b90-84b2-c3a1d4747304}, !- Handle
  {664ef204-6938-4dba-bedd-96cec5a19d50}, !- Construction Name
  ExteriorFloor,                          !- Intended Surface Type
  Mass;                                   !- Standards Construction Type

OS:Material:NoMass,
  {caa2bc85-73ed-419e-9dea-235facc4edba}, !- Handle
  Typical Insulation R-10.94,             !- Name
  Smooth,                                 !- Roughness
  1.92744457586651,                       !- Thermal Resistance {m2-K/W}
  0.9,                                    !- Thermal Absorptance
  0.7,                                    !- Solar Absorptance
  0.7;                                    !- Visible Absorptance

OS:Material,
  {b5def4d5-8b82-412e-a3ad-91f3bfaad38d}, !- Handle
  4 in. Normalweight Concrete Floor,      !- Name
  MediumRough,                            !- Roughness
  0.1016,                                 !- Thickness {m}
  2.31,                                   !- Conductivity {W/m-K}
  2321.99999999999,                       !- Density {kg/m3}
  831.999999999997,                       !- Specific Heat {J/kg-K}
  0.9,                                    !- Thermal Absorptance
  0.7,                                    !- Solar Absorptance
  0.7;                                    !- Visible Absorptance

OS:Material:NoMass,
  {a1324651-8275-4e78-93c1-7ec2688358a6}, !- Handle
  Typical Carpet Pad,                     !- Name
  Smooth,                                 !- Roughness
  0.216479986995276,                      !- Thermal Resistance {m2-K/W}
  0.9,                                    !- Thermal Absorptance
  0.7,                                    !- Solar Absorptance
  0.8;                                    !- Visible Absorptance

OS:Construction,
  {1e0537cd-ed05-47b6-b6b6-154b31ec7d11}, !- Handle
  Typical Insulated Exterior Mass Wall R-11.11, !- Name
  ,                                       !- Surface Rendering Name
  {3108f88e-9541-46e5-a802-9cbfc346b1cd}, !- Layer 1
  {3745ac91-9eec-43ce-aee9-e8a475e063d2}, !- Layer 2
  {056873f3-7ec5-4f5c-8adb-7ca7ab11821f}, !- Layer 3
  {8b82e002-854d-4d5f-b68e-b18647901e4d}; !- Layer 4

OS:StandardsInformation:Construction,
  {d425b81d-8751-4ed8-a2de-dad4862cca71}, !- Handle
  {1e0537cd-ed05-47b6-b6b6-154b31ec7d11}, !- Construction Name
  ExteriorWall,                           !- Intended Surface Type
  Mass;                                   !- Standards Construction Type

OS:Material,
  {3108f88e-9541-46e5-a802-9cbfc346b1cd}, !- Handle
  1IN Stucco,                             !- Name
  Smooth,                                 !- Roughness
  0.0253,                                 !- Thickness {m}
  0.691799999999999,                      !- Conductivity {W/m-K}
  1858,                                   !- Density {kg/m3}
  836.999999999999,                       !- Specific Heat {J/kg-K}
  0.9,                                    !- Thermal Absorptance
  0.7,                                    !- Solar Absorptance
  0.92;                                   !- Visible Absorptance

OS:Material,
  {3745ac91-9eec-43ce-aee9-e8a475e063d2}, !- Handle
  8IN CONCRETE HW RefBldg,                !- Name
  Rough,                                  !- Roughness
  0.2032,                                 !- Thickness {m}
  1.311,                                  !- Conductivity {W/m-K}
  2240,                                   !- Density {kg/m3}
  836.800000000001,                       !- Specific Heat {J/kg-K}
  0.9,                                    !- Thermal Absorptance
  0.7,                                    !- Solar Absorptance
  0.7;                                    !- Visible Absorptance

OS:Material:NoMass,
  {056873f3-7ec5-4f5c-8adb-7ca7ab11821f}, !- Handle
  Typical Insulation R-8.72,              !- Name
  Smooth,                                 !- Roughness
  1.53614371307394,                       !- Thermal Resistance {m2-K/W}
  0.9,                                    !- Thermal Absorptance
  0.7,                                    !- Solar Absorptance
  0.7;                                    !- Visible Absorptance

OS:Material,
  {8b82e002-854d-4d5f-b68e-b18647901e4d}, !- Handle
  1/2IN Gypsum,                           !- Name
  Smooth,                                 !- Roughness
  0.0127,                                 !- Thickness {m}
  0.16,                                   !- Conductivity {W/m-K}
  784.9,                                  !- Density {kg/m3}
  830.000000000001,                       !- Specific Heat {J/kg-K}
  0.9,                                    !- Thermal Absorptance
  0.4,                                    !- Solar Absorptance
  0.4;                                    !- Visible Absorptance

OS:Construction,
  {933516d8-fff3-44d2-8807-2b383f68b441}, !- Handle
  Typical IEAD Roof R-20.83,              !- Name
  ,                                       !- Surface Rendering Name
  {ace41a1a-190a-4266-83aa-d028d7743d36}, !- Layer 1
  {bc069a26-a0d1-48fc-a4db-f06dd2d412eb}, !- Layer 2
  {52237aaf-a10c-410c-8586-6cbbc04917e9}; !- Layer 3

OS:StandardsInformation:Construction,
  {1d3195b2-427f-4431-a9e9-5721178c6a65}, !- Handle
  {933516d8-fff3-44d2-8807-2b383f68b441}, !- Construction Name
  ExteriorRoof,                           !- Intended Surface Type
  IEAD;                                   !- Standards Construction Type

OS:Material,
  {ace41a1a-190a-4266-83aa-d028d7743d36}, !- Handle
  Roof Membrane,                          !- Name
  VeryRough,                              !- Roughness
  0.0095,                                 !- Thickness {m}
  0.16,                                   !- Conductivity {W/m-K}
  1121.29,                                !- Density {kg/m3}
  1460,                                   !- Specific Heat {J/kg-K}
  0.9,                                    !- Thermal Absorptance
  0.7,                                    !- Solar Absorptance
  0.7;                                    !- Visible Absorptance

OS:Material:NoMass,
  {bc069a26-a0d1-48fc-a4db-f06dd2d412eb}, !- Handle
  Typical Insulation R-19.72,             !- Name
  Smooth,                                 !- Roughness
  3.47220354893132,                       !- Thermal Resistance {m2-K/W}
  0.9,                                    !- Thermal Absorptance
  0.7,                                    !- Solar Absorptance
  0.7;                                    !- Visible Absorptance

OS:Material,
  {52237aaf-a10c-410c-8586-6cbbc04917e9}, !- Handle
  Metal Roof Surface,                     !- Name
  Smooth,                                 !- Roughness
  0.000799999999999998,                   !- Thickness {m}
  45.2799999999999,                       !- Conductivity {W/m-K}
  7823.99999999999,                       !- Density {kg/m3}
  499.999999999996,                       !- Specific Heat {J/kg-K}
  0.9,                                    !- Thermal Absorptance
  0.7,                                    !- Solar Absorptance
  0.7;                                    !- Visible Absorptance

OS:DefaultSurfaceConstructions,
  {8f7ff021-a35a-46c3-b848-f03e9a4c1912}, !- Handle
  Default Surface Constructions 2,        !- Name
  {a5fad2d2-3d9d-48c3-b329-11187123cb51}, !- Floor Construction Name
  {3c9b5799-761a-435b-88c1-84fc903d7a77}, !- Wall Construction Name
  {2410d91c-7799-4c1c-bf04-a46db4277d03}; !- Roof Ceiling Construction Name

OS:Construction,
  {a5fad2d2-3d9d-48c3-b329-11187123cb51}, !- Handle
  Typical Interior Floor,                 !- Name
  ,                                       !- Surface Rendering Name
  {25071efc-d713-4777-8575-cb874b334df5}, !- Layer 1
  {fbe42be7-8483-488c-8ed0-e139f754dd01}; !- Layer 2

OS:StandardsInformation:Construction,
  {e8363774-0169-4b0e-9de2-5c4fe4ea7125}, !- Handle
  {a5fad2d2-3d9d-48c3-b329-11187123cb51}, !- Construction Name
  InteriorFloor,                          !- Intended Surface Type
  ;                                       !- Standards Construction Type

OS:Material,
  {25071efc-d713-4777-8575-cb874b334df5}, !- Handle
  100mm Normalweight concrete floor,      !- Name
  MediumRough,                            !- Roughness
  0.1016,                                 !- Thickness {m}
  2.31044676686054,                       !- Conductivity {W/m-K}
  2322.00146636525,                       !- Density {kg/m3}
  832.5567858096,                         !- Specific Heat {J/kg-K}
  ,                                       !- Thermal Absorptance
  0,                                      !- Solar Absorptance
  0;                                      !- Visible Absorptance

OS:Material:NoMass,
  {fbe42be7-8483-488c-8ed0-e139f754dd01}, !- Handle
  CP02 CARPET PAD,                        !- Name
  Smooth,                                 !- Roughness
  0.216479986995276,                      !- Thermal Resistance {m2-K/W}
  0.9,                                    !- Thermal Absorptance
  0.7,                                    !- Solar Absorptance
  0.8;                                    !- Visible Absorptance

OS:Construction,
  {3c9b5799-761a-435b-88c1-84fc903d7a77}, !- Handle
  Typical Interior Wall,                  !- Name
  ,                                       !- Surface Rendering Name
  {629977c4-8c61-47d4-8984-503554aeaa6f}, !- Layer 1
  {629977c4-8c61-47d4-8984-503554aeaa6f}; !- Layer 2

OS:StandardsInformation:Construction,
  {55d95c0c-c1b5-42ef-9371-eb0e6b440135}, !- Handle
  {3c9b5799-761a-435b-88c1-84fc903d7a77}, !- Construction Name
  InteriorWall,                           !- Intended Surface Type
  ;                                       !- Standards Construction Type

OS:Material,
  {629977c4-8c61-47d4-8984-503554aeaa6f}, !- Handle
  G01 13mm gypsum board,                  !- Name
  Smooth,                                 !- Roughness
  0.0127,                                 !- Thickness {m}
  0.160030944416258,                      !- Conductivity {W/m-K}
  800.000505207667,                       !- Density {kg/m3}
  1090.7294438736,                        !- Specific Heat {J/kg-K}
  0.9,                                    !- Thermal Absorptance
  0.7,                                    !- Solar Absorptance
  0.5;                                    !- Visible Absorptance

OS:Construction,
  {2410d91c-7799-4c1c-bf04-a46db4277d03}, !- Handle
  Typical Interior Ceiling,               !- Name
  ,                                       !- Surface Rendering Name
  {fbe42be7-8483-488c-8ed0-e139f754dd01}, !- Layer 1
  {25071efc-d713-4777-8575-cb874b334df5}; !- Layer 2

OS:StandardsInformation:Construction,
  {cd995790-4c32-4b44-ab9d-a63b782f609d}, !- Handle
  {2410d91c-7799-4c1c-bf04-a46db4277d03}, !- Construction Name
  InteriorCeiling,                        !- Intended Surface Type
  ;                                       !- Standards Construction Type

OS:DefaultSurfaceConstructions,
  {feef56ae-a12d-4cc9-b1d8-3e3064d5f072}, !- Handle
  Default Surface Constructions 3,        !- Name
  {cfc53fbb-b9b1-40c4-b4d8-984ea93c34a2}, !- Floor Construction Name
  {e5a6ed8c-61bf-43fe-ac92-ce44c8bb9d0b}, !- Wall Construction Name
  ;                                       !- Roof Ceiling Construction Name

OS:Construction,
  {cfc53fbb-b9b1-40c4-b4d8-984ea93c34a2}, !- Handle
  Typical Insulated Carpeted 6in Slab Floor, !- Name
  ,                                       !- Surface Rendering Name
  {3f0fb3b2-933c-49de-9608-e5b344556650}, !- Layer 1
  {a1324651-8275-4e78-93c1-7ec2688358a6}; !- Layer 2

OS:StandardsInformation:Construction,
  {a461ec0d-2859-4a7b-aa0d-db61effe0a30}, !- Handle
  {cfc53fbb-b9b1-40c4-b4d8-984ea93c34a2}, !- Construction Name
  GroundContactFloor,                     !- Intended Surface Type
  Mass;                                   !- Standards Construction Type

OS:Material:NoMass,
  {c83ccecb-1274-4301-a228-826f0aea2114}, !- Handle
  Typical Insulation R-0.58,              !- Name
  Smooth,                                 !- Roughness
  0.101874652714525,                      !- Thermal Resistance {m2-K/W}
  0.9,                                    !- Thermal Absorptance
  0.7,                                    !- Solar Absorptance
  0.7;                                    !- Visible Absorptance

OS:Material,
  {3f0fb3b2-933c-49de-9608-e5b344556650}, !- Handle
  6 in. Normalweight Concrete Floor,      !- Name
  MediumRough,                            !- Roughness
  0.1524,                                 !- Thickness {m}
  2.31,                                   !- Conductivity {W/m-K}
  2321.99999999999,                       !- Density {kg/m3}
  831.999999999997,                       !- Specific Heat {J/kg-K}
  0.9,                                    !- Thermal Absorptance
  0.7,                                    !- Solar Absorptance
  0.7;                                    !- Visible Absorptance

OS:Construction,
  {e5a6ed8c-61bf-43fe-ac92-ce44c8bb9d0b}, !- Handle
  Typical Insulated Basement Mass Wall,   !- Name
  ,                                       !- Surface Rendering Name
  {380aab60-2db6-4281-b582-40099d95e640}; !- Layer 1

OS:StandardsInformation:Construction,
  {7e077e53-4477-41c5-84e2-0825abd04c96}, !- Handle
  {e5a6ed8c-61bf-43fe-ac92-ce44c8bb9d0b}, !- Construction Name
  GroundContactWall,                      !- Intended Surface Type
  Mass;                                   !- Standards Construction Type

OS:Material,
  {380aab60-2db6-4281-b582-40099d95e640}, !- Handle
  8 in. Concrete Block Basement Wall,     !- Name
  MediumRough,                            !- Roughness
  0.2032,                                 !- Thickness {m}
  1.326,                                  !- Conductivity {W/m-K}
  1841.99999999999,                       !- Density {kg/m3}
  911.999999999999,                       !- Specific Heat {J/kg-K}