
OS:Version,
  {2d7e48c0-0428-40dd-80a1-04f36207d142}, !- Handle
  2.8.0;                                  !- Version Identifier

OS:ClimateZones,
  {135edfab-17e7-40db-a436-27d385a8cd6d}, !- Handle
  ,                                       !- Active Institution
  ,                                       !- Active Year
  ASHRAE,                                 !- Climate Zone Institution Name 1
  ANSI/ASHRAE Standard 169,               !- Climate Zone Document Name 1
  2006,                                   !- Climate Zone Document Year 1
  3B,                                     !- Climate Zone Value 1
  CEC,                                    !- Climate Zone Institution Name 2
  California Climate Zone Descriptions,   !- Climate Zone Document Name 2
  1995,                                   !- Climate Zone Document Year 2
  ;                                       !- Climate Zone Value 2

OS:YearDescription,
  {513d8dda-86cb-442a-b01c-1f7f0e0ac70e}; !- Handle

OS:RadianceParameters,
  {270a96f1-3c86-4b75-a667-cdf22790e2c8}, !- Handle
  1,                                      !- Accumulated Rays per Record
  0,                                      !- Direct Threshold
  1,                                      !- Direct Certainty
  1,                                      !- Direct Jitter
  1,                                      !- Direct Pretest
  6,                                      !- Ambient Bounces VMX
  2,                                      !- Ambient Bounces DMX
  4050,                                   !- Ambient Divisions VMX
  512,                                    !- Ambient Divisions DMX
  256,                                    !- Ambient Supersamples
  0.001,                                  !- Limit Weight VMX
  0.001,                                  !- Limit Weight DMX
  500,                                    !- Klems Sampling Density
  146;                                    !- Sky Discretization Resolution

OS:SimulationControl,
  {2c487a4c-bac9-4ac5-b669-1e49d9da7c2b}; !- Handle

OS:Sizing:Parameters,
  {dde5af6f-7923-4600-a28a-7556673a0266}, !- Handle
  1.25,                                   !- Heating Sizing Factor
  1.15;                                   !- Cooling Sizing Factor

OS:ProgramControl,
  {05027a99-f2b3-4aeb-afc6-1425fbb4371d}; !- Handle

OS:Timestep,
  {4ebc9f1e-4707-402e-9844-67eb1ffbd522}, !- Handle
  6;                                      !- Number of Timesteps per Hour

OS:OutputControl:ReportingTolerances,
  {65797aa2-06a9-45fe-b69d-bc6e060399d3}; !- Handle

OS:ConvergenceLimits,
  {9fc11aba-8822-4f3d-970c-46391ba4040d}; !- Handle

OS:ShadowCalculation,
  {ca758bea-4416-4626-9bba-3d8795c79bd6}, !- Handle
  7,                                      !- Calculation Frequency
  15000;                                  !- Maximum Figures in Shadow Overlap Calculations

OS:SurfaceConvectionAlgorithm:Inside,
  {aaabfc36-718a-4ab0-b622-f186ebb45230}, !- Handle
  TARP;                                   !- Algorithm

OS:SurfaceConvectionAlgorithm:Outside,
  {9a0a9f6f-4bbd-4b12-a121-9492a1fcd7d6}, !- Handle
  DOE-2;                                  !- Algorithm

OS:HeatBalanceAlgorithm,
  {9d93e563-e1e0-46d7-9e39-d1c8aceb7212}, !- Handle
  ConductionTransferFunction,             !- Algorithm
  200;                                    !- Surface Temperature Upper Limit {C}

OS:ZoneAirHeatBalanceAlgorithm,
  {8520d93e-310f-4696-9bcd-36228bfdd743}, !- Handle
  AnalyticalSolution;                     !- Algorithm

OS:ZoneAirContaminantBalance,
  {eb5fc3ae-fb22-4160-8fcb-3e3b22b000d3}; !- Handle

OS:ZoneCapacitanceMultiplier:ResearchSpecial,
  {4020ce4f-5a7a-4849-8028-8305d7b751b1}, !- Handle
  ,                                       !- Temperature Capacity Multiplier
  ,                                       !- Humidity Capacity Multiplier
  ;                                       !- Carbon Dioxide Capacity Multiplier

OS:RunPeriod,
  {28df894d-6af9-4fb8-8f56-df1753344aa3}, !- Handle
  Run Period 1,                           !- Name
  1,                                      !- Begin Month
  1,                                      !- Begin Day of Month
  12,                                     !- End Month
  31,                                     !- End Day of Month
  ,                                       !- Use Weather File Holidays and Special Days
  ,                                       !- Use Weather File Daylight Saving Period
  ,                                       !- Apply Weekend Holiday Rule
  ,                                       !- Use Weather File Rain Indicators
  ,                                       !- Use Weather File Snow Indicators
  ;                                       !- Number of Times Runperiod to be Repeated

OS:Building,
  {bf305633-c5a1-4881-9edf-ca5e1a8e1274}, !- Handle
  Office 90.1-2013 3B,                    !- Name
  ,                                       !- Building Sector Type
  ,                                       !- North Axis {deg}
  ,                                       !- Nominal Floor to Floor Height {m}
  {497f51ca-62dc-49e9-aab9-8d19c44f286f}, !- Space Type Name
  {f7406e4f-dce4-4a79-8747-de353da24e81}, !- Default Construction Set Name
  ,                                       !- Default Schedule Set Name
  ,                                       !- Standards Number of Stories
  ,                                       !- Standards Number of Above Ground Stories
  ,                                       !- Standards Template
  Office;                                 !- Standards Building Type

OS:SpaceType,
  {6823a736-bfce-411a-85a6-9bb03db25d31}, !- Handle
  Office MediumOffice - Breakroom - 90.1-2013, !- Name
  ,                                       !- Default Construction Set Name
  {607b59b4-ed5b-4b62-83e2-cd35500ad7d9}, !- Default Schedule Set Name
  {368a4116-3965-4d9c-babb-1a393352129e}, !- Group Rendering Name
  {02b97c32-ff05-4876-9b1f-8307b73f6216}, !- Design Specification Outdoor Air Object Name
  ,                                       !- Standards Template
  Office,                                 !- Standards Building Type
  MediumOffice - Breakroom;               !- Standards Space Type

OS:People:Definition,
  {4d6cd18a-1e01-4f86-8608-48714781212b}, !- Handle
  Office MediumOffice - Breakroom People Definition, !- Name
  People/Area,                            !- Number of People Calculation Method
  ,                                       !- Number of People {people}
  0.538195520835486,                      !- People per Space Floor Area {person/m2}
  ,                                       !- Space Floor Area per Person {m2/person}
  0.3;                                    !- Fraction Radiant

OS:People,
  {42311949-9985-4d0c-86a4-41a7469ba6f9}, !- Handle
  Office MediumOffice - Breakroom People, !- Name
  {4d6cd18a-1e01-4f86-8608-48714781212b}, !- People Definition Name
  {6823a736-bfce-411a-85a6-9bb03db25d31}, !- Space or SpaceType Name
  ,                                       !- Number of People Schedule Name
  ,                                       !- Activity Level Schedule Name
  ,                                       !- Surface Name/Angle Factor List Name
  {014ab58f-6da6-4cdf-b470-7e7d8552baac}, !- Work Efficiency Schedule Name
  {b87ca9fa-1e19-4ce9-9e12-9d4c44c243bb}, !- Clothing Insulation Schedule Name
  {d9758cc0-205c-49d9-b041-fae0a135d277}, !- Air Velocity Schedule Name
  1;                                      !- Multiplier

OS:Schedule:Ruleset,
  {b87ca9fa-1e19-4ce9-9e12-9d4c44c243bb}, !- Handle
  Clothing Schedule,                      !- Name
  {ea8bf519-d903-4cc2-82ba-4eb1eb19a98f}, !- Schedule Type Limits Name
  {536bd1a1-1517-4afc-a1ec-b83a86f9dbc9}; !- Default Day Schedule Name

OS:Schedule:Day,
  {536bd1a1-1517-4afc-a1ec-b83a86f9dbc9}, !- Handle
  Clothing Schedule Default Winter Clothes, !- Name
  {ea8bf519-d903-4cc2-82ba-4eb1eb19a98f}, !- Schedule Type Limits Name
  ,                                       !- Interpolate to Timestep
  24,                                     !- Hour 1
  0,                                      !- Minute 1
  1;                                      !- Value Until Time 1

OS:Schedule:Rule,
  {59a6a15b-5fe0-4349-a400-5a23f20b256b}, !- Handle
  Schedule Rule 1,                        !- Name
  {b87ca9fa-1e19-4ce9-9e12-9d4c44c243bb}, !- Schedule Ruleset Name
  0,                                      !- Rule Order
  {55ca6196-8c9b-4eb6-8d9a-dc7ec83222c8}, !- Day Schedule Name
  ,                                       !- Apply Sunday
  ,                                       !- Apply Monday
  ,                                       !- Apply Tuesday
  ,                                       !- Apply Wednesday
  ,                                       !- Apply Thursday
  ,                                       !- Apply Friday
  ,                                       !- Apply Saturday
  ,                                       !- Apply Holiday
  DateRange,                              !- Date Specification Type
  5,                                      !- Start Month
  1,                                      !- Start Day
  9,                                      !- End Month
  30;                                     !- End Day

OS:Schedule:Day,
  {55ca6196-8c9b-4eb6-8d9a-dc7ec83222c8}, !- Handle
  Clothing Schedule Summer Clothes,       !- Name
  {ea8bf519-d903-4cc2-82ba-4eb1eb19a98f}, !- Schedule Type Limits Name
  ,                                       !- Interpolate to Timestep
  24,                                     !- Hour 1
  0,                                      !- Minute 1
  0.5;                                    !- Value Until Time 1

OS:ScheduleTypeLimits,
  {ea8bf519-d903-4cc2-82ba-4eb1eb19a98f}, !- Handle
  ClothingInsulation,                     !- Name
  0,                                      !- Lower Limit Value
  ,                                       !- Upper Limit Value
  Continuous,                             !- Numeric Type
  ClothingInsulation;                     !- Unit Type

OS:Schedule:Ruleset,
  {d9758cc0-205c-49d9-b041-fae0a135d277}, !- Handle
  Air Velocity Schedule,                  !- Name
  {8549a580-979b-4c6b-b5ed-9a39b07cc6eb}, !- Schedule Type Limits Name
  {5d83d9bb-9615-4ad8-bc2b-0810ab16a25e}; !- Default Day Schedule Name

OS:Schedule:Day,
  {5d83d9bb-9615-4ad8-bc2b-0810ab16a25e}, !- Handle
  Air Velocity Schedule Default,          !- Name
  {8549a580-979b-4c6b-b5ed-9a39b07cc6eb}, !- Schedule Type Limits Name
  ,                                       !- Interpolate to Timestep
  24,                                     !- Hour 1
  0,                                      !- Minute 1
  0.2;                                    !- Value Until Time 1

OS:ScheduleTypeLimits,
  {8549a580-979b-4c6b-b5ed-9a39b07cc6eb}, !- Handle
  Velocity,                               !- Name
  0,                                      !- Lower Limit Value
  ,                                       !- Upper Limit Value
  Continuous,                             !- Numeric Type
  Velocity;                               !- Unit Type

OS:Schedule:Ruleset,
  {014ab58f-6da6-4cdf-b470-7e7d8552baac}, !- Handle
  Work Efficiency Schedule,               !- Name
  {1198c5d8-b6da-4686-abb6-d5508f6585ee}, !- Schedule Type Limits Name
  {6c4f405e-f49e-4a0c-ad89-cb988339da4e}; !- Default Day Schedule Name

OS:Schedule:Day,
  {6c4f405e-f49e-4a0c-ad89-cb988339da4e}, !- Handle
  Work Efficiency Schedule Default,       !- Name
  {1198c5d8-b6da-4686-abb6-d5508f6585ee}, !- Schedule Type Limits Name
  ,                                       !- Interpolate to Timestep
  24,                                     !- Hour 1
  0,                                      !- Minute 1
  0;                                      !- Value Until Time 1

OS:ScheduleTypeLimits,
  {1198c5d8-b6da-4686-abb6-d5508f6585ee}, !- Handle
  Fractional,                             !- Name
  0,                                      !- Lower Limit Value
  1,                                      !- Upper Limit Value
  Continuous;                             !- Numeric Type

OS:Lights:Definition,
  {604b3d46-4494-4b10-89e4-55b0c8b20d25}, !- Handle
  Office MediumOffice - Breakroom Lights Definition, !- Name
  Watts/Area,                             !- Design Level Calculation Method
  ,                                       !- Lighting Level {W}
  7.8576546041981,                        !- Watts per Space Floor Area {W/m2}
  ,                                       !- Watts per Person {W/person}
  0.7,                                    !- Fraction Radiant
  0.2;                                    !- Fraction Visible

OS:Lights,
  {c256fc58-9907-4e36-9d34-3a9877e7ae09}, !- Handle
  Office MediumOffice - Breakroom Lights, !- Name
  {604b3d46-4494-4b10-89e4-55b0c8b20d25}, !- Lights Definition Name
  {6823a736-bfce-411a-85a6-9bb03db25d31}, !- Space or SpaceType Name
  ,                                       !- Schedule Name
  0,                                      !- Fraction Replaceable
  ,                                       !- Multiplier
  General;                                !- End-Use Subcategory

OS:ElectricEquipment:Definition,
  {0b38d5aa-789a-44e1-8bcc-5cde656c0b15}, !- Handle
  Office MediumOffice - Breakroom Elec Equip Definition, !- Name
  Watts/Area,                             !- Design Level Calculation Method
  ,                                       !- Design Level {W}
  60.0626201252403,                       !- Watts per Space Floor Area {W/m2}
  ,                                       !- Watts per Person {W/person}
  ,                                       !- Fraction Latent
  0.5;                                    !- Fraction Radiant

OS:ElectricEquipment,
  {3c4643fd-6906-4331-a426-745a16315a83}, !- Handle
  Office MediumOffice - Breakroom Elec Equip, !- Name
  {0b38d5aa-789a-44e1-8bcc-5cde656c0b15}, !- Electric Equipment Definition Name
  {6823a736-bfce-411a-85a6-9bb03db25d31}, !- Space or SpaceType Name
  ,                                       !- Schedule Name
  ,                                       !- Multiplier
  General;                                !- End-Use Subcategory

OS:DesignSpecification:OutdoorAir,
  {02b97c32-ff05-4876-9b1f-8307b73f6216}, !- Handle
  Office MediumOffice - Breakroom Ventilation, !- Name
  Sum,                                    !- Outdoor Air Method
  0.002359737216,                         !- Outdoor Air Flow per Person {m3/s-person}
  0.0003048,                              !- Outdoor Air Flow per Floor Area {m3/s-m2}
  ,                                       !- Outdoor Air Flow Rate {m3/s}
  ,                                       !- Outdoor Air Flow Air Changes per Hour {1/hr}
  ;                                       !- Outdoor Air Flow Rate Fraction Schedule Name

OS:SpaceInfiltration:DesignFlowRate,
  {3b0c66d7-9f79-4831-ba33-c9ae8a5083cb}, !- Handle
  Office MediumOffice - Breakroom Infiltration, !- Name
  {6823a736-bfce-411a-85a6-9bb03db25d31}, !- Space or SpaceType Name
  ,                                       !- Schedule Name
  Flow/ExteriorArea,                      !- Design Flow Rate Calculation Method
  ,                                       !- Design Flow Rate {m3/s}
  ,                                       !- Flow per Space Floor Area {m3/s-m2}
  0.000226568,                            !- Flow per Exterior Surface Area {m3/s-m2}
  ,                                       !- Air Changes per Hour {1/hr}
  ,                                       !- Constant Term Coefficient
  ,                                       !- Temperature Term Coefficient
  ,                                       !- Velocity Term Coefficient
  ;                                       !- Velocity Squared Term Coefficient

OS:DefaultScheduleSet,
  {607b59b4-ed5b-4b62-83e2-cd35500ad7d9}, !- Handle
  Office MediumOffice - Breakroom Schedule Set, !- Name
  ,                                       !- Hours of Operation Schedule Name
  {969cdb74-851e-45c0-b9d2-9f89b431c075}, !- Number of People Schedule Name
  {53cd42fe-c3e6-49db-a2a7-8f264966ab93}, !- People Activity Level Schedule Name
  {2f2fa5da-c002-4c76-9bbd-be51d5e90b76}, !- Lighting Schedule Name
  {89c29876-b524-4f48-85ca-4571136c5502}, !- Electric Equipment Schedule Name
  ,                                       !- Gas Equipment Schedule Name
  ,                                       !- Hot Water Equipment Schedule Name
  {c0fd5a9b-9f50-498f-a0a0-08ee239c64ee}, !- Infiltration Schedule Name
  ,                                       !- Steam Equipment Schedule Name
  ;                                       !- Other Equipment Schedule Name

OS:Schedule:Ruleset,
  {969cdb74-851e-45c0-b9d2-9f89b431c075}, !- Handle
  OfficeMedium BLDG_OCC_SCH,              !- Name
  {1198c5d8-b6da-4686-abb6-d5508f6585ee}, !- Schedule Type Limits Name
  {25f04acf-2821-406a-b1fc-90e33d4b01a6}, !- Default Day Schedule Name
  {75b22294-df16-41b2-a107-77c726d6992c}, !- Summer Design Day Schedule Name
  {9c21e37e-b821-4c4d-a83c-6f10898ea280}; !- Winter Design Day Schedule Name

OS:Schedule:Day,
  {25f04acf-2821-406a-b1fc-90e33d4b01a6}, !- Handle
  OfficeMedium BLDG_OCC_SCH Default,      !- Name
  {1198c5d8-b6da-4686-abb6-d5508f6585ee}, !- Schedule Type Limits Name
  ,                                       !- Interpolate to Timestep
  6,                                      !- Hour 1
  0,                                      !- Minute 1
  0,                                      !- Value Until Time 1
  18,                                     !- Hour 2
  0,                                      !- Minute 2
  0.05,                                   !- Value Until Time 2
  24,                                     !- Hour 3
  0,                                      !- Minute 3
  0;                                      !- Value Until Time 3

OS:Schedule:Rule,
  {651af24d-f3f0-4518-90f2-11259b8ad8f3}, !- Handle
  Schedule Rule 2,                        !- Name
  {969cdb74-851e-45c0-b9d2-9f89b431c075}, !- Schedule Ruleset Name
  1,                                      !- Rule Order
  {cd017384-b51a-484a-b04e-50a76b8d561b}, !- Day Schedule Name
  ,                                       !- Apply Sunday
  ,                                       !- Apply Monday
  ,                                       !- Apply Tuesday
  ,                                       !- Apply Wednesday
  ,                                       !- Apply Thursday
  ,                                       !- Apply Friday
  Yes,                                    !- Apply Saturday
  ,                                       !- Apply Holiday
  DateRange,                              !- Date Specification Type
  1,                                      !- Start Month
  1,                                      !- Start Day
  12,                                     !- End Month
  31;                                     !- End Day

OS:Schedule:Day,
  {cd017384-b51a-484a-b04e-50a76b8d561b}, !- Handle
  OfficeMedium BLDG_OCC_SCH Sat Day,      !- Name
  {1198c5d8-b6da-4686-abb6-d5508f6585ee}, !- Schedule Type Limits Name
  ,                                       !- Interpolate to Timestep
  6,                                      !- Hour 1
  0,                                      !- Minute 1
  0,                                      !- Value Until Time 1
  8,                                      !- Hour 2
  0,                                      !- Minute 2
  0.1,                                    !- Value Until Time 2
  12,                                     !- Hour 3
  0,                                      !- Minute 3
  0.3,                                    !- Value Until Time 3
  17,                                     !- Hour 4
  0,                                      !- Minute 4
  0.1,                                    !- Value Until Time 4
  19,                                     !- Hour 5
  0,                                      !- Minute 5
  0.05,                                   !- Value Until Time 5
  24,                                     !- Hour 6
  0,                                      !- Minute 6
  0;                                      !- Value Until Time 6

OS:Schedule:Day,
  {d34f8b2c-7f62-4950-bb11-361ac621b680}, !- Handle
  Schedule Day 1,                         !- Name
  ,                                       !- Schedule Type Limits Name
  ,                                       !- Interpolate to Timestep
  24,                                     !- Hour 1
  0,                                      !- Minute 1
  0;                                      !- Value Until Time 1

OS:Schedule:Day,
  {75b22294-df16-41b2-a107-77c726d6992c}, !- Handle
  OfficeMedium BLDG_OCC_SCH Summer Design Day, !- Name
  {1198c5d8-b6da-4686-abb6-d5508f6585ee}, !- Schedule Type Limits Name
  ,                                       !- Interpolate to Timestep
  6,                                      !- Hour 1
  0,                                      !- Minute 1
  0,                                      !- Value Until Time 1
  22,                                     !- Hour 2
  0,                                      !- Minute 2
  1,                                      !- Value Until Time 2
  24,                                     !- Hour 3
  0,                                      !- Minute 3
  0.05;                                   !- Value Until Time 3

OS:Schedule:Rule,
  {366cfcb9-af66-42e0-90b0-8b92ca4d667b}, !- Handle
  Schedule Rule 3,                        !- Name
  {969cdb74-851e-45c0-b9d2-9f89b431c075}, !- Schedule Ruleset Name
  0,                                      !- Rule Order
  {47f0cc2d-1d05-4431-871f-5570d6126599}, !- Day Schedule Name
  ,                                       !- Apply Sunday
  Yes,                                    !- Apply Monday
  Yes,                                    !- Apply Tuesday
  Yes,                                    !- Apply Wednesday
  Yes,                                    !- Apply Thursday
  Yes,                                    !- Apply Friday
  ,                                       !- Apply Saturday
  ,                                       !- Apply Holiday
  DateRange,                              !- Date Specification Type
  1,                                      !- Start Month
  1,                                      !- Start Day
  12,                                     !- End Month
  31;                                     !- End Day

OS:Schedule:Day,
  {47f0cc2d-1d05-4431-871f-5570d6126599}, !- Handle
  OfficeMedium BLDG_OCC_SCH Wkdy Day,     !- Name
  {1198c5d8-b6da-4686-abb6-d5508f6585ee}, !- Schedule Type Limits Name
  ,                                       !- Interpolate to Timestep
  6,                                      !- Hour 1
  0,                                      !- Minute 1
  0,                                      !- Value Until Time 1
  7,                                      !- Hour 2
  0,                                      !- Minute 2
  0.1,                                    !- Value Until Time 2
  8,                                      !- Hour 3
  0,                                      !- Minute 3
  0.2,                                    !- Value Until Time 3
  12,                                     !- Hour 4
  0,                                      !- Minute 4
  0.95,                                   !- Value Until Time 4
  13,                                     !- Hour 5
  0,                                      !- Minute 5
  0.5,                                    !- Value Until Time 5
  17,                                     !- Hour 6
  0,                                      !- Minute 6
  0.95,                                   !- Value Until Time 6
  18,                                     !- Hour 7
  0,                                      !- Minute 7
  0.3,                                    !- Value Until Time 7
  22,                                     !- Hour 8
  0,                                      !- Minute 8
  0.1,                                    !- Value Until Time 8
  24,                                     !- Hour 9
  0,                                      !- Minute 9
  0.05;                                   !- Value Until Time 9

OS:Schedule:Day,
  {fb139bef-25d4-4c50-a79f-e83b74a2094a}, !- Handle
  Schedule Day 2,                         !- Name
  ,                                       !- Schedule Type Limits Name
  ,                                       !- Interpolate to Timestep
  24,                                     !- Hour 1
  0,                                      !- Minute 1
  0;                                      !- Value Until Time 1

OS:Schedule:Day,
  {9c21e37e-b821-4c4d-a83c-6f10898ea280}, !- Handle
  OfficeMedium BLDG_OCC_SCH Winter Design Day, !- Name
  {1198c5d8-b6da-4686-abb6-d5508f6585ee}, !- Schedule Type Limits Name
  ,                                       !- Interpolate to Timestep
  24,                                     !- Hour 1
  0,                                      !- Minute 1
  0;                                      !- Value Until Time 1

OS:Schedule:Ruleset,
  {53cd42fe-c3e6-49db-a2a7-8f264966ab93}, !- Handle
  OfficeMedium ACTIVITY_SCH,              !- Name
  {95f6e750-e915-48c9-b4dd-333b8a8cf00a}, !- Schedule Type Limits Name
  {904163cc-d0d8-452c-9a1f-114533ae6048}, !- Default Day Schedule Name
  {5e27718e-c263-4a33-877c-4ca7a1c77c82}, !- Summer Design Day Schedule Name
  {2f6f3472-9297-47a7-839a-0b740e3433c0}; !- Winter Design Day Schedule Name

OS:Schedule:Day,
  {904163cc-d0d8-452c-9a1f-114533ae6048}, !- Handle
  OfficeMedium ACTIVITY_SCH Default,      !- Name
  {95f6e750-e915-48c9-b4dd-333b8a8cf00a}, !- Schedule Type Limits Name
  ,                                       !- Interpolate to Timestep
  24,                                     !- Hour 1
  0,                                      !- Minute 1
  120;                                    !- Value Until Time 1

OS:Schedule:Day,
  {530bdd5c-ded8-4d9f-bd85-37a66a00ee0e}, !- Handle
  Schedule Day 3,                         !- Name
  ,                                       !- Schedule Type Limits Name
  ,                                       !- Interpolate to Timestep
  24,                                     !- Hour 1
  0,                                      !- Minute 1
  0;                                      !- Value Until Time 1

OS:Schedule:Day,
  {2f6f3472-9297-47a7-839a-0b740e3433c0}, !- Handle
  OfficeMedium ACTIVITY_SCH Winter Design Day, !- Name
  {95f6e750-e915-48c9-b4dd-333b8a8cf00a}, !- Schedule Type Limits Name
  ,                                       !- Interpolate to Timestep
  24,                                     !- Hour 1
  0,                                      !- Minute 1
  120;                                    !- Value Until Time 1

OS:Schedule:Day,
  {2d63f130-78e0-414b-9572-127f6ecfb6a5}, !- Handle
  Schedule Day 4,                         !- Name
  ,                                       !- Schedule Type Limits Name
  ,                                       !- Interpolate to Timestep
  24,                                     !- Hour 1
  0,                                      !- Minute 1
  0;                                      !- Value Until Time 1

OS:Schedule:Day,
  {5e27718e-c263-4a33-877c-4ca7a1c77c82}, !- Handle
  OfficeMedium ACTIVITY_SCH Summer Design Day, !- Name
  {95f6e750-e915-48c9-b4dd-333b8a8cf00a}, !- Schedule Type Limits Name
  ,                                       !- Interpolate to Timestep
  24,                                     !- Hour 1
  0,                                      !- Minute 1
  120;                                    !- Value Until Time 1

OS:ScheduleTypeLimits,
  {95f6e750-e915-48c9-b4dd-333b8a8cf00a}, !- Handle
  ActivityLevel,                          !- Name
  0,                                      !- Lower Limit Value
  ,                                       !- Upper Limit Value
  Continuous,                             !- Numeric Type
  ActivityLevel;                          !- Unit Type

OS:Schedule:Ruleset,
  {2f2fa5da-c002-4c76-9bbd-be51d5e90b76}, !- Handle
  OfficeMedium BLDG_LIGHT_SCH_2013,       !- Name
  {1198c5d8-b6da-4686-abb6-d5508f6585ee}, !- Schedule Type Limits Name
  {6244c542-b68d-4f06-8ed2-1c216051f246}, !- Default Day Schedule Name
  {e7a4ece9-bb81-44cf-8b63-47180f761fa7}, !- Summer Design Day Schedule Name
  {f2fdd6b5-c25c-4a29-ad7c-b37be5608983}; !- Winter Design Day Schedule Name

OS:Schedule:Day,
  {6244c542-b68d-4f06-8ed2-1c216051f246}, !- Handle
  Schedule Day 5,                         !- Name
  {1198c5d8-b6da-4686-abb6-d5508f6585ee}, !- Schedule Type Limits Name
  ,                                       !- Interpolate to Timestep
  24,                                     !- Hour 1
  0,                                      !- Minute 1
  0;                                      !- Value Until Time 1

OS:Schedule:Rule,
  {487f1bf6-e900-4171-a1dc-8159940d8f34}, !- Handle
  Schedule Rule 4,                        !- Name
  {2f2fa5da-c002-4c76-9bbd-be51d5e90b76}, !- Schedule Ruleset Name
  2,                                      !- Rule Order
  {3348b3a5-69c4-4f3f-9f85-8a6cef3e0ba1}, !- Day Schedule Name
  ,                                       !- Apply Sunday
  ,                                       !- Apply Monday
  ,                                       !- Apply Tuesday
  ,                                       !- Apply Wednesday
  ,                                       !- Apply Thursday
  ,                                       !- Apply Friday
  Yes,                                    !- Apply Saturday
  ,                                       !- Apply Holiday
  DateRange,                              !- Date Specification Type
  1,                                      !- Start Month
  1,                                      !- Start Day
  12,                                     !- End Month