
OS:Version,
  {ab8225e1-56c1-4be0-92a3-b962734681c8}, !- Handle
  2.8.0;                                  !- Version Identifier

OS:ClimateZones,
  {135edfab-17e7-40db-a436-27d385a8cd6d}, !- Handle
  ,                                       !- Active Institution
  ,                                       !- Active Year
  ASHRAE,                                 !- Climate Zone Institution Name 1
  ANSI/ASHRAE Standard 169,               !- Climate Zone Document Name 1
  2006,                                   !- Climate Zone Document Year 1
  3B,                                     !- Climate Zone Value 1
  CEC,                                    !- Climate Zone Institution Name 2
  California Climate Zone Descriptions,   !- Climate Zone Document Name 2
  1995,                                   !- Climate Zone Document Year 2
  ;                                       !- Climate Zone Value 2

OS:YearDescription,
  {513d8dda-86cb-442a-b01c-1f7f0e0ac70e}; !- Handle

OS:RadianceParameters,
  {270a96f1-3c86-4b75-a667-cdf22790e2c8}, !- Handle
  1,                                      !- Accumulated Rays per Record
  0,                                      !- Direct Threshold
  1,                                      !- Direct Certainty
  1,                                      !- Direct Jitter
  1,                                      !- Direct Pretest
  6,                                      !- Ambient Bounces VMX
  2,                                      !- Ambient Bounces DMX
  4050,                                   !- Ambient Divisions VMX
  512,                                    !- Ambient Divisions DMX
  256,                                    !- Ambient Supersamples
  0.001,                                  !- Limit Weight VMX
  0.001,                                  !- Limit Weight DMX
  500,                                    !- Klems Sampling Density
  146;                                    !- Sky Discretization Resolution

OS:SimulationControl,
  {2c487a4c-bac9-4ac5-b669-1e49d9da7c2b}; !- Handle

OS:Sizing:Parameters,
  {dde5af6f-7923-4600-a28a-7556673a0266}, !- Handle
  1.25,                                   !- Heating Sizing Factor
  1.15;                                   !- Cooling Sizing Factor

OS:ProgramControl,
  {05027a99-f2b3-4aeb-afc6-1425fbb4371d}; !- Handle

OS:Timestep,
  {4ebc9f1e-4707-402e-9844-67eb1ffbd522}, !- Handle
  6;                                      !- Number of Timesteps per Hour

OS:OutputControl:ReportingTolerances,
  {65797aa2-06a9-45fe-b69d-bc6e060399d3}; !- Handle

OS:ConvergenceLimits,
  {9fc11aba-8822-4f3d-970c-46391ba4040d}; !- Handle

OS:ShadowCalculation,
  {ca758bea-4416-4626-9bba-3d8795c79bd6}, !- Handle
  7,                                      !- Calculation Frequency
  15000;                                  !- Maximum Figures in Shadow Overlap Calculations

OS:SurfaceConvectionAlgorithm:Inside,
  {aaabfc36-718a-4ab0-b622-f186ebb45230}, !- Handle
  TARP;                                   !- Algorithm

OS:SurfaceConvectionAlgorithm:Outside,
  {9a0a9f6f-4bbd-4b12-a121-9492a1fcd7d6}, !- Handle
  DOE-2;                                  !- Algorithm

OS:HeatBalanceAlgorithm,
  {9d93e563-e1e0-46d7-9e39-d1c8aceb7212}, !- Handle
  ConductionTransferFunction,             !- Algorithm
  200;                                    !- Surface Temperature Upper Limit {C}

OS:ZoneAirHeatBalanceAlgorithm,
  {8520d93e-310f-4696-9bcd-36228bfdd743}, !- Handle
  AnalyticalSolution;                     !- Algorithm

OS:ZoneAirContaminantBalance,
  {eb5fc3ae-fb22-4160-8fcb-3e3b22b000d3}; !- Handle

OS:ZoneCapacitanceMultiplier:ResearchSpecial,
  {4020ce4f-5a7a-4849-8028-8305d7b751b1}, !- Handle
  ,                                       !- Temperature Capacity Multiplier
  ,                                       !- Humidity Capacity Multiplier
  ;                                       !- Carbon Dioxide Capacity Multiplier

OS:RunPeriod,
  {28df894d-6af9-4fb8-8f56-df1753344aa3}, !- Handle
  Run Period 1,                           !- Name
  1,                                      !- Begin Month
  1,                                      !- Begin Day of Month
  12,                                     !- End Month
  31,                                     !- End Day of Month
  ,                                       !- Use Weather File Holidays and Special Days
  ,                                       !- Use Weather File Daylight Saving Period
  ,                                       !- Apply Weekend Holiday Rule
  ,                                       !- Use Weather File Rain Indicators
  ,                                       !- Use Weather File Snow Indicators
  ;                                       !- Number of Times Runperiod to be Repeated

OS:Building,
  {bf305633-c5a1-4881-9edf-ca5e1a8e1274}, !- Handle
  Office DOE Ref 1980-2004 3B,            !- Name
  ,                                       !- Building Sector Type
  ,                                       !- North Axis {deg}
  ,                                       !- Nominal Floor to Floor Height {m}
  {38a11324-aeda-466a-9b88-cf9d96d0e77c}, !- Space Type Name
  {b0bff98e-55bd-44db-91cb-f31d9fe015ac}, !- Default Construction Set Name
  ,                                       !- Default Schedule Set Name
  ,                                       !- Standards Number of Stories
  ,                                       !- Standards Number of Above Ground Stories
  ,                                       !- Standards Template
  Office;                                 !- Standards Building Type

OS:SpaceType,
  {6b266d9d-a07b-400d-8c96-4d0bf2b64df9}, !- Handle
  Office SmallOffice - Breakroom - DOE Ref 1980-2004, !- Name
  ,                                       !- Default Construction Set Name
  {fb977664-fc16-44cb-b09f-046b83b0e4f3}, !- Default Schedule Set Name
  {3fed863d-cec0-4a78-8013-cc1c325492a0}, !- Group Rendering Name
  {d0e6cf4a-d64c-4528-846f-aae46392325a}, !- Design Specification Outdoor Air Object Name
  ,                                       !- Standards Template
  Office,                                 !- Standards Building Type
  SmallOffice - Breakroom;                !- Standards Space Type

OS:People:Definition,
  {5882f1fd-8eaf-44ec-8413-63b78fd5cce4}, !- Handle
  Office SmallOffice - Breakroom People Definition, !- Name
  People/Area,                            !- Number of People Calculation Method
  ,                                       !- Number of People {people}
  0.538195520835486,                      !- People per Space Floor Area {person/m2}
  ,                                       !- Space Floor Area per Person {m2/person}
  0.3;                                    !- Fraction Radiant

OS:People,
  {5d2c1816-0b53-4857-b56e-f8d82c5bc075}, !- Handle
  Office SmallOffice - Breakroom People,  !- Name
  {5882f1fd-8eaf-44ec-8413-63b78fd5cce4}, !- People Definition Name
  {6b266d9d-a07b-400d-8c96-4d0bf2b64df9}, !- Space or SpaceType Name
  ,                                       !- Number of People Schedule Name
  ,                                       !- Activity Level Schedule Name
  ,                                       !- Surface Name/Angle Factor List Name
  {50ab879f-650c-4eb5-9fcd-26d190c1bdd5}, !- Work Efficiency Schedule Name
  {ed0e5df3-c36c-4fe0-9812-6dc38f72104f}, !- Clothing Insulation Schedule Name
  {c874cf7b-de61-4cd5-8d8d-a33a33e358a3}, !- Air Velocity Schedule Name
  1;                                      !- Multiplier

OS:Schedule:Ruleset,
  {ed0e5df3-c36c-4fe0-9812-6dc38f72104f}, !- Handle
  Clothing Schedule,                      !- Name
  {eb96ab9d-b9d8-4eaa-81ff-d17118ed908b}, !- Schedule Type Limits Name
  {d711c662-03d6-40f7-aacd-26a18646d41c}; !- Default Day Schedule Name

OS:Schedule:Day,
  {d711c662-03d6-40f7-aacd-26a18646d41c}, !- Handle
  Clothing Schedule Default Winter Clothes, !- Name
  {eb96ab9d-b9d8-4eaa-81ff-d17118ed908b}, !- Schedule Type Limits Name
  ,                                       !- Interpolate to Timestep
  24,                                     !- Hour 1
  0,                                      !- Minute 1
  1;                                      !- Value Until Time 1

OS:Schedule:Rule,
  {ed133132-5e30-4601-afd3-716ab49e835d}, !- Handle
  Schedule Rule 1,                        !- Name
  {ed0e5df3-c36c-4fe0-9812-6dc38f72104f}, !- Schedule Ruleset Name
  0,                                      !- Rule Order
  {0d409976-54a9-4293-a1bc-f7da9965791a}, !- Day Schedule Name
  ,                                       !- Apply Sunday
  ,                                       !- Apply Monday
  ,                                       !- Apply Tuesday
  ,                                       !- Apply Wednesday
  ,                                       !- Apply Thursday
  ,                                       !- Apply Friday
  ,                                       !- Apply Saturday
  ,                                       !- Apply Holiday
  DateRange,                              !- Date Specification Type
  5,                                      !- Start Month
  1,                                      !- Start Day
  9,                                      !- End Month
  30;                                     !- End Day

OS:Schedule:Day,
  {0d409976-54a9-4293-a1bc-f7da9965791a}, !- Handle
  Clothing Schedule Summer Clothes,       !- Name
  {eb96ab9d-b9d8-4eaa-81ff-d17118ed908b}, !- Schedule Type Limits Name
  ,                                       !- Interpolate to Timestep
  24,                                     !- Hour 1
  0,                                      !- Minute 1
  0.5;                                    !- Value Until Time 1

OS:ScheduleTypeLimits,
  {eb96ab9d-b9d8-4eaa-81ff-d17118ed908b}, !- Handle
  ClothingInsulation,                     !- Name
  0,                                      !- Lower Limit Value
  ,                                       !- Upper Limit Value
  Continuous,                             !- Numeric Type
  ClothingInsulation;                     !- Unit Type

OS:Schedule:Ruleset,
  {c874cf7b-de61-4cd5-8d8d-a33a33e358a3}, !- Handle
  Air Velocity Schedule,                  !- Name
  {ca3cca3f-89c7-458b-9604-a647a38d7cdc}, !- Schedule Type Limits Name
  {3e5417f5-517a-479a-a5f6-c03d7d380547}; !- Default Day Schedule Name

OS:Schedule:Day,
  {3e5417f5-517a-479a-a5f6-c03d7d380547}, !- Handle
  Air Velocity Schedule Default,          !- Name
  {ca3cca3f-89c7-458b-9604-a647a38d7cdc}, !- Schedule Type Limits Name
  ,                                       !- Interpolate to Timestep
  24,                                     !- Hour 1
  0,                                      !- Minute 1
  0.2;                                    !- Value Until Time 1

OS:ScheduleTypeLimits,
  {ca3cca3f-89c7-458b-9604-a647a38d7cdc}, !- Handle
  Velocity,                               !- Name
  0,                                      !- Lower Limit Value
  ,                                       !- Upper Limit Value
  Continuous,                             !- Numeric Type
  Velocity;                               !- Unit Type

OS:Schedule:Ruleset,
  {50ab879f-650c-4eb5-9fcd-26d190c1bdd5}, !- Handle
  Work Efficiency Schedule,               !- Name
  {4bb872aa-a1fe-46cc-a0c4-1c8b07fc444d}, !- Schedule Type Limits Name
  {fd162507-b733-49cf-a69d-a53628b79cf3}; !- Default Day Schedule Name

OS:Schedule:Day,
  {fd162507-b733-49cf-a69d-a53628b79cf3}, !- Handle
  Work Efficiency Schedule Default,       !- Name
  {4bb872aa-a1fe-46cc-a0c4-1c8b07fc444d}, !- Schedule Type Limits Name
  ,                                       !- Interpolate to Timestep
  24,                                     !- Hour 1
  0,                                      !- Minute 1
  0;                                      !- Value Until Time 1

OS:ScheduleTypeLimits,
  {4bb872aa-a1fe-46cc-a0c4-1c8b07fc444d}, !- Handle
  Fractional,                             !- Name
  0,                                      !- Lower Limit Value
  1,                                      !- Upper Limit Value
  Continuous;                             !- Numeric Type

OS:Lights:Definition,
  {edd8bbb6-bd28-4857-bcc7-2e39878c9a47}, !- Handle
  Office SmallOffice - Breakroom Lights Definition, !- Name
  Watts/Area,                             !- Design Level Calculation Method
  ,                                       !- Lighting Level {W}
  20.2792072250811,                       !- Watts per Space Floor Area {W/m2}
  ,                                       !- Watts per Person {W/person}
  0.4,                                    !- Fraction Radiant
  0.2,                                    !- Fraction Visible
  0.4;                                    !- Return Air Fraction

OS:Lights,
  {9dadfa04-7af7-4670-bd11-e6532cb62ca3}, !- Handle
  Office SmallOffice - Breakroom Lights,  !- Name
  {edd8bbb6-bd28-4857-bcc7-2e39878c9a47}, !- Lights Definition Name
  {6b266d9d-a07b-400d-8c96-4d0bf2b64df9}, !- Space or SpaceType Name
  ,                                       !- Schedule Name
  0,                                      !- Fraction Replaceable
  ,                                       !- Multiplier
  General;                                !- End-Use Subcategory

OS:ElectricEquipment:Definition,
  {229f8b05-439f-4450-a510-e3420281a47f}, !- Handle
  Office SmallOffice - Breakroom Elec Equip Definition, !- Name
  Watts/Area,                             !- Design Level Calculation Method
  ,                                       !- Design Level {W}
  14.3160008542239,                       !- Watts per Space Floor Area {W/m2}
  ,                                       !- Watts per Person {W/person}
  ,                                       !- Fraction Latent
  0.5;                                    !- Fraction Radiant

OS:ElectricEquipment,
  {835bcdd1-0e6e-4509-bcc0-eb41eb16072d}, !- Handle
  Office SmallOffice - Breakroom Elec Equip, !- Name
  {229f8b05-439f-4450-a510-e3420281a47f}, !- Electric Equipment Definition Name
  {6b266d9d-a07b-400d-8c96-4d0bf2b64df9}, !- Space or SpaceType Name
  ,                                       !- Schedule Name
  ,                                       !- Multiplier
  General;                                !- End-Use Subcategory

OS:DesignSpecification:OutdoorAir,
  {d0e6cf4a-d64c-4528-846f-aae46392325a}, !- Handle
  Office SmallOffice - Breakroom Ventilation, !- Name
  Sum,                                    !- Outdoor Air Method
  0.007079211648,                         !- Outdoor Air Flow per Person {m3/s-person}
  ,                                       !- Outdoor Air Flow per Floor Area {m3/s-m2}
  ,                                       !- Outdoor Air Flow Rate {m3/s}
  ,                                       !- Outdoor Air Flow Air Changes per Hour {1/hr}
  ;                                       !- Outdoor Air Flow Rate Fraction Schedule Name

OS:SpaceInfiltration:DesignFlowRate,
  {d7a4489b-288c-44d7-8a0a-fe9b769f392b}, !- Handle
  Office SmallOffice - Breakroom Infiltration, !- Name
  {6b266d9d-a07b-400d-8c96-4d0bf2b64df9}, !- Space or SpaceType Name
  ,                                       !- Schedule Name
  Flow/ExteriorWallArea,                  !- Design Flow Rate Calculation Method
  ,                                       !- Design Flow Rate {m3/s}
  ,                                       !- Flow per Space Floor Area {m3/s-m2}
  0.001133856,                            !- Flow per Exterior Surface Area {m3/s-m2}
  ,                                       !- Air Changes per Hour {1/hr}
  ,                                       !- Constant Term Coefficient
  ,                                       !- Temperature Term Coefficient
  ,                                       !- Velocity Term Coefficient
  ;                                       !- Velocity Squared Term Coefficient

OS:DefaultScheduleSet,
  {fb977664-fc16-44cb-b09f-046b83b0e4f3}, !- Handle
  Office SmallOffice - Breakroom Schedule Set, !- Name
  ,                                       !- Hours of Operation Schedule Name
  {86e9871b-1cc0-45eb-b5b8-ddb43c3d0d80}, !- Number of People Schedule Name
  {4bc8f5f5-1cd9-4db9-9af9-649bdba3369c}, !- People Activity Level Schedule Name
  {a69e65ac-ca04-4bc1-9e20-b8608d14c9c1}, !- Lighting Schedule Name
  {d413bce6-4a47-4cfd-87be-8884d3765c30}, !- Electric Equipment Schedule Name
  ,                                       !- Gas Equipment Schedule Name
  ,                                       !- Hot Water Equipment Schedule Name
  {cd1afcd6-1ea0-49db-b19d-99870059e182}, !- Infiltration Schedule Name
  ,                                       !- Steam Equipment Schedule Name
  ;                                       !- Other Equipment Schedule Name

OS:Schedule:Ruleset,
  {86e9871b-1cc0-45eb-b5b8-ddb43c3d0d80}, !- Handle
  Small Office Bldg Occ,                  !- Name
  {4bb872aa-a1fe-46cc-a0c4-1c8b07fc444d}, !- Schedule Type Limits Name
  {2bc2134f-8b0e-4b94-995e-3378c948063f}, !- Default Day Schedule Name
  {8abc1404-67e1-4d84-b455-1aa41a060ae8}, !- Summer Design Day Schedule Name
  {6f950238-d6b9-45f6-ab95-19a8d524c646}; !- Winter Design Day Schedule Name

OS:Schedule:Day,
  {2bc2134f-8b0e-4b94-995e-3378c948063f}, !- Handle
  Small Office Bldg Occ Default,          !- Name
  {4bb872aa-a1fe-46cc-a0c4-1c8b07fc444d}, !- Schedule Type Limits Name
  ,                                       !- Interpolate to Timestep
  6,                                      !- Hour 1
  0,                                      !- Minute 1
  0,                                      !- Value Until Time 1
  7,                                      !- Hour 2
  0,                                      !- Minute 2
  0.1,                                    !- Value Until Time 2
  8,                                      !- Hour 3
  0,                                      !- Minute 3
  0.2,                                    !- Value Until Time 3
  12,                                     !- Hour 4
  0,                                      !- Minute 4
  0.95,                                   !- Value Until Time 4
  13,                                     !- Hour 5
  0,                                      !- Minute 5
  0.5,                                    !- Value Until Time 5
  17,                                     !- Hour 6
  0,                                      !- Minute 6
  0.95,                                   !- Value Until Time 6
  18,                                     !- Hour 7
  0,                                      !- Minute 7
  0.3,                                    !- Value Until Time 7
  20,                                     !- Hour 8
  0,                                      !- Minute 8
  0.1,                                    !- Value Until Time 8
  24,                                     !- Hour 9
  0,                                      !- Minute 9
  0.05;                                   !- Value Until Time 9

OS:Schedule:Rule,
  {d47e4779-34a9-43ad-9d4a-496beefccde9}, !- Handle
  Schedule Rule 2,                        !- Name
  {86e9871b-1cc0-45eb-b5b8-ddb43c3d0d80}, !- Schedule Ruleset Name
  1,                                      !- Rule Order
  {493f4446-133d-4f0c-aa31-478fb0503b88}, !- Day Schedule Name
  ,                                       !- Apply Sunday
  ,                                       !- Apply Monday
  ,                                       !- Apply Tuesday
  ,                                       !- Apply Wednesday
  ,                                       !- Apply Thursday
  ,                                       !- Apply Friday
  Yes,                                    !- Apply Saturday
  ,                                       !- Apply Holiday
  DateRange,                              !- Date Specification Type
  1,                                      !- Start Month
  1,                                      !- Start Day
  12,                                     !- End Month
  31;                                     !- End Day

OS:Schedule:Day,
  {493f4446-133d-4f0c-aa31-478fb0503b88}, !- Handle
  Small Office Bldg Occ Sat Day,          !- Name
  {4bb872aa-a1fe-46cc-a0c4-1c8b07fc444d}, !- Schedule Type Limits Name
  ,                                       !- Interpolate to Timestep
  6,                                      !- Hour 1
  0,                                      !- Minute 1
  0,                                      !- Value Until Time 1
  8,                                      !- Hour 2
  0,                                      !- Minute 2
  0.1,                                    !- Value Until Time 2
  12,                                     !- Hour 3
  0,                                      !- Minute 3
  0.3,                                    !- Value Until Time 3
  17,                                     !- Hour 4
  0,                                      !- Minute 4
  0.1,                                    !- Value Until Time 4
  24,                                     !- Hour 5
  0,                                      !- Minute 5
  0;                                      !- Value Until Time 5

OS:Schedule:Day,
  {fd6f5243-b08f-467f-aebb-e9cc64a940de}, !- Handle
  Schedule Day 1,                         !- Name
  ,                                       !- Schedule Type Limits Name
  ,                                       !- Interpolate to Timestep
  24,                                     !- Hour 1
  0,                                      !- Minute 1
  0;                                      !- Value Until Time 1

OS:Schedule:Day,
  {8abc1404-67e1-4d84-b455-1aa41a060ae8}, !- Handle
  Small Office Bldg Occ Summer Design Day, !- Name
  {4bb872aa-a1fe-46cc-a0c4-1c8b07fc444d}, !- Schedule Type Limits Name
  ,                                       !- Interpolate to Timestep
  6,                                      !- Hour 1
  0,                                      !- Minute 1
  0,                                      !- Value Until Time 1
  22,                                     !- Hour 2
  0,                                      !- Minute 2
  1,                                      !- Value Until Time 2
  24,                                     !- Hour 3
  0,                                      !- Minute 3
  0.05;                                   !- Value Until Time 3

OS:Schedule:Day,
  {2bd06f0a-df9f-4d1d-8073-8db99e277515}, !- Handle
  Schedule Day 2,                         !- Name
  ,                                       !- Schedule Type Limits Name
  ,                                       !- Interpolate to Timestep
  24,                                     !- Hour 1
  0,                                      !- Minute 1
  0;                                      !- Value Until Time 1

OS:Schedule:Day,
  {6f950238-d6b9-45f6-ab95-19a8d524c646}, !- Handle
  Small Office Bldg Occ Winter Design Day, !- Name
  {4bb872aa-a1fe-46cc-a0c4-1c8b07fc444d}, !- Schedule Type Limits Name
  ,                                       !- Interpolate to Timestep
  24,                                     !- Hour 1
  0,                                      !- Minute 1
  0;                                      !- Value Until Time 1

OS:Schedule:Rule,
  {ba21ba91-fe40-47ae-af5a-f5f8555ee52b}, !- Handle
  Schedule Rule 3,                        !- Name
  {86e9871b-1cc0-45eb-b5b8-ddb43c3d0d80}, !- Schedule Ruleset Name
  0,                                      !- Rule Order
  {d73ecdca-771e-4ecd-9488-beb92b4953ac}, !- Day Schedule Name
  Yes,                                    !- Apply Sunday
  ,                                       !- Apply Monday
  ,                                       !- Apply Tuesday
  ,                                       !- Apply Wednesday
  ,                                       !- Apply Thursday
  ,                                       !- Apply Friday
  ,                                       !- Apply Saturday
  ,                                       !- Apply Holiday
  DateRange,                              !- Date Specification Type
  1,                                      !- Start Month
  1,                                      !- Start Day
  12,                                     !- End Month
  31;                                     !- End Day

OS:Schedule:Day,
  {d73ecdca-771e-4ecd-9488-beb92b4953ac}, !- Handle
  Small Office Bldg Occ WntrDsn|Sun Day,  !- Name
  {4bb872aa-a1fe-46cc-a0c4-1c8b07fc444d}, !- Schedule Type Limits Name
  ,                                       !- Interpolate to Timestep
  24,                                     !- Hour 1
  0,                                      !- Minute 1
  0;                                      !- Value Until Time 1

OS:Schedule:Ruleset,
  {4bc8f5f5-1cd9-4db9-9af9-649bdba3369c}, !- Handle
  Small Office Activity,                  !- Name
  {cf9e8b20-f641-4adf-8b4b-4e3de9099d82}, !- Schedule Type Limits Name
  {ba3680c8-ab19-4c45-984c-62a909aeca4d}, !- Default Day Schedule Name
  {c37f8d05-7a38-433a-8fc9-07006ce22ba7}, !- Summer Design Day Schedule Name
  {1bdbb3da-b01c-48ac-8734-58b7da30b1d0}; !- Winter Design Day Schedule Name

OS:Schedule:Day,
  {ba3680c8-ab19-4c45-984c-62a909aeca4d}, !- Handle
  Small Office Activity Default,          !- Name
  {cf9e8b20-f641-4adf-8b4b-4e3de9099d82}, !- Schedule Type Limits Name
  ,                                       !- Interpolate to Timestep
  24,                                     !- Hour 1
  0,                                      !- Minute 1
  120;                                    !- Value Until Time 1

OS:Schedule:Day,
  {997de761-48cf-402c-8f0e-5972a9a0a911}, !- Handle
  Schedule Day 3,                         !- Name
  ,                                       !- Schedule Type Limits Name
  ,                                       !- Interpolate to Timestep
  24,                                     !- Hour 1
  0,                                      !- Minute 1
  0;                                      !- Value Until Time 1

OS:Schedule:Day,
  {1bdbb3da-b01c-48ac-8734-58b7da30b1d0}, !- Handle
  Small Office Activity Winter Design Day, !- Name
  {cf9e8b20-f641-4adf-8b4b-4e3de9099d82}, !- Schedule Type Limits Name
  ,                                       !- Interpolate to Timestep
  24,                                     !- Hour 1
  0,                                      !- Minute 1
  120;                                    !- Value Until Time 1

OS:Schedule:Day,
  {6c7b072f-9871-4e71-bd29-dfd499276754}, !- Handle
  Schedule Day 4,                         !- Name
  ,                                       !- Schedule Type Limits Name
  ,                                       !- Interpolate to Timestep
  24,                                     !- Hour 1
  0,                                      !- Minute 1
  0;                                      !- Value Until Time 1

OS:Schedule:Day,
  {c37f8d05-7a38-433a-8fc9-07006ce22ba7}, !- Handle
  Small Office Activity Summer Design Day, !- Name
  {cf9e8b20-f641-4adf-8b4b-4e3de9099d82}, !- Schedule Type Limits Name
  ,                                       !- Interpolate to Timestep
  24,                                     !- Hour 1
  0,                                      !- Minute 1
  120;                                    !- Value Until Time 1

OS:ScheduleTypeLimits,
  {cf9e8b20-f641-4adf-8b4b-4e3de9099d82}, !- Handle
  ActivityLevel,                          !- Name
  0,                                      !- Lower Limit Value
  ,                                       !- Upper Limit Value
  Continuous,                             !- Numeric Type
  ActivityLevel;                          !- Unit Type

OS:Schedule:Ruleset,
  {a69e65ac-ca04-4bc1-9e20-b8608d14c9c1}, !- Handle
  Office Bldg Light,                      !- Name
  {4bb872aa-a1fe-46cc-a0c4-1c8b07fc444d}, !- Schedule Type Limits Name
  {17170ed7-d7b2-4c58-9555-71b6bd51955f}, !- Default Day Schedule Name
  {f21c12e9-d259-4029-ad23-1b1697696739}, !- Summer Design Day Schedule Name
  {1ed8aef2-f452-4d25-be35-a26b8d33718b}; !- Winter Design Day Schedule Name

OS:Schedule:Day,
  {17170ed7-d7b2-4c58-9555-71b6bd51955f}, !- Handle
  Office Bldg Light Default,              !- Name
  {4bb872aa-a1fe-46cc-a0c4-1c8b07fc444d}, !- Schedule Type Limits Name
  ,                                       !- Interpolate to Timestep
  5,                                      !- Hour 1
  0,                                      !- Minute 1
  0.05,                                   !- Value Until Time 1
  7,                                      !- Hour 2
  0,                                      !- Minute 2
  0.1,                                    !- Value Until Time 2
  8,                                      !- Hour 3
  0,                                      !- Minute 3
  0.3,                                    !- Value Until Time 3
  17,                                     !- Hour 4
  0,                                      !- Minute 4
  0.9,                                    !- Value Until Time 4
  18,                                     !- Hour 5
  0,                                      !- Minute 5
  0.5,                                    !- Value Until Time 5
  20,                                     !- Hour 6
  0,                                      !- Minute 6
  0.3,                                    !- Value Until Time 6
  22,                                     !- Hour 7
  0,                                      !- Minute 7
  0.2,                                    !- Value Until Time 7
  23,                                     !- Hour 8
  0,                                      !- Minute 8
  0.1,                                    !- Value Until Time 8
  24,                                     !- Hour 9
  0,                                      !- Minute 9
  0.05;                                   !- Value Until Time 9

OS:Schedule:Rule,
  {943a2e42-77e9-4ad9-ba1a-d5ec6c3851b4}, !- Handle
  Schedule Rule 4,                        !- Name