
OS:Version,
  {e6c677f2-4054-410e-8173-d60cc257ff90}, !- Handle
  2.8.0;                                  !- Version Identifier

OS:Material,
  {a11c9548-e569-4e4f-a1ab-f749cf4ccb29}, !- Handle
  Concrete- Aerated: 200 [mm],            !- Name
  MediumRough,                            !- Roughness
  0.2,                                    !- Thickness {m}
  0.117,                                  !- Conductivity {W/m-K}
  580,                                    !- Density {kg/m3}
  840;                                    !- Specific Heat {J/kg-K}

OS:Material,
  {e81c9217-c5f0-4c8f-a0c0-77b4621aa4d7}, !- Handle
  Rock Wool: 70 [mm],                     !- Name
  MediumRough,                            !- Roughness
  0.07,                                   !- Thickness {m}
  0.042,                                  !- Conductivity {W/m-K}
  200,                                    !- Density {kg/m3}
  710;                                    !- Specific Heat {J/kg-K}

OS:Material,
  {2405f1a1-6075-45ad-afe1-c44e2d2148d0}, !- Handle
  Ceramic Tile: 20 [mm],                  !- Name
  MediumRough,                            !- Roughness
  0.02,                                   !- Thickness {m}
  1.2,                                    !- Conductivity {W/m-K}
  2000,                                   !- Density {kg/m3}
  850;                                    !- Specific Heat {J/kg-K}

OS:Material,
  {919246ae-b473-4573-933b-f2ac1e92c6e4}, !- Handle
  Concrete: 200 [mm],                     !- Name
  MediumRough,                            !- Roughness
  0.2,                                    !- Thickness {m}
  1.046,                                  !- Conductivity {W/m-K}
  2300,                                   !- Density {kg/m3}
  657;                                    !- Specific Heat {J/kg-K}

OS:Material,
  {b6643d05-99d0-461b-b728-1e0cf1040cfb}, !- Handle
  EIFS- Exterior Insulation: 50 [mm],     !- Name
  MediumRough,                            !- Roughness
  0.05,                                   !- Thickness {m}
  0.023,                                  !- Conductivity {W/m-K}
  24,                                     !- Density {kg/m3}
  1590;                                   !- Specific Heat {J/kg-K}

OS:Material,
  {d81f20b6-e921-42d6-ab13-0c4ebdc482e3}, !- Handle
  Rock Wool: 150 [mm],                    !- Name
  MediumRough,                            !- Roughness
  0.15,                                   !- Thickness {m}
  0.042,                                  !- Conductivity {W/m-K}
  200,                                    !- Density {kg/m3}
  710;                                    !- Specific Heat {J/kg-K}

OS:Material,
  {73a1fdfa-0784-46e6-ba3d-21f3be534894}, !- Handle
  Plaster: 10 [mm],                       !- Name
  MediumRough,                            !- Roughness
  0.01,                                   !- Thickness {m}
  0.51,                                   !- Conductivity {W/m-K}
  1120,                                   !- Density {kg/m3}
  960;                                    !- Specific Heat {J/kg-K}

OS:Material,
  {3fc8503c-8dcf-4e09-9d75-81a6ae69538d}, !- Handle
  Concrete- Aerated: 100 [mm],            !- Name
  MediumRough,                            !- Roughness
  0.1,                                    !- Thickness {m}
  0.117,                                  !- Conductivity {W/m-K}
  580,                                    !- Density {kg/m3}
  840;                                    !- Specific Heat {J/kg-K}

OS:Material,
  {881af2dd-f282-4278-af80-92428bc7a08a}, !- Handle
  {4fd11abf-7e72-49bc-bf3d-d2b8991a3ce7}, !- Name
  MediumRough,                            !- Roughness
  0.01,                                   !- Thickness {m}
  0.51,                                   !- Conductivity {W/m-K}
  1120,                                   !- Density {kg/m3}
  960;                                    !- Specific Heat {J/kg-K}

OS:Material,
  {4d9734ac-433c-46b2-80bd-aaecf4ebc295}, !- Handle
  {4add001d-0b5d-4af3-bfcc-ea71aa6c3057}, !- Name
  MediumRough,                            !- Roughness
  0.02,                                   !- Thickness {m}
  1.2,                                    !- Conductivity {W/m-K}
  2000,                                   !- Density {kg/m3}
  850;                                    !- Specific Heat {J/kg-K}

OS:Material,
  {5d346fff-a6c5-44f5-b0eb-32b01a19030c}, !- Handle
  {6a585513-038e-459c-a74e-7a1fe29c571e}, !- Name
  MediumRough,                            !- Roughness
  0.2,                                    !- Thickness {m}
  1.046,                                  !- Conductivity {W/m-K}
  2300,                                   !- Density {kg/m3}
  657;                                    !- Specific Heat {J/kg-K}

OS:Material,
  {6d3b0020-e71f-4d13-8d1b-10c953caffdc}, !- Handle
  {1517b90c-90bf-4ad5-84cb-ad873f5aadb0}, !- Name
  MediumRough,                            !- Roughness
  0.01,                                   !- Thickness {m}
  0.51,                                   !- Conductivity {W/m-K}
  1120,                                   !- Density {kg/m3}
  960;                                    !- Specific Heat {J/kg-K}

OS:Construction,
  {a4239bb8-c5c6-48fd-aa54-24d4c62f0626}, !- Handle
  Basic Wall: Generic - 300mm,            !- Name
  ,                                       !- Surface Rendering Name
  {a11c9548-e569-4e4f-a1ab-f749cf4ccb29}, !- Layer 1
  {e81c9217-c5f0-4c8f-a0c0-77b4621aa4d7}; !- Layer 2

OS:Construction,
  {37e25b39-519f-44b3-9828-3084d6983d1f}, !- Handle
  Floor: Generic 300mm,                   !- Name
  ,                                       !- Surface Rendering Name
  {2405f1a1-6075-45ad-afe1-c44e2d2148d0}, !- Layer 1
  {919246ae-b473-4573-933b-f2ac1e92c6e4}, !- Layer 2
  {b6643d05-99d0-461b-b728-1e0cf1040cfb}; !- Layer 3

OS:Construction,
  {2f6bf197-6b26-422d-a161-472b55f38da2}, !- Handle
  Basic Roof: Generic - 150mm,            !- Name
  ,                                       !- Surface Rendering Name
  {d81f20b6-e921-42d6-ab13-0c4ebdc482e3}; !- Layer 1

OS:Construction,
  {1527234f-2a34-4748-8f27-55995b3c347d}, !- Handle
  Basic Wall: Interior - 100mm,           !- Name
  ,                                       !- Surface Rendering Name
  {73a1fdfa-0784-46e6-ba3d-21f3be534894}, !- Layer 1
  {3fc8503c-8dcf-4e09-9d75-81a6ae69538d}, !- Layer 2
  {881af2dd-f282-4278-af80-92428bc7a08a}; !- Layer 3

OS:Construction,
  {56f705db-de5f-443a-b3ae-0ba5d3edfca6}, !- Handle
  Floor: Interior 300mm,                  !- Name
  ,                                       !- Surface Rendering Name
  {4d9734ac-433c-46b2-80bd-aaecf4ebc295}, !- Layer 1
  {5d346fff-a6c5-44f5-b0eb-32b01a19030c}, !- Layer 2
  {6d3b0020-e71f-4d13-8d1b-10c953caffdc}; !- Layer 3

OS:Construction,
  {8babe82b-ecd6-4617-996c-a75f629193d8}, !- Handle
  Double glazing - 1/4 in thick - low-E/clear (e = 0.2) glass, !- Name
  ,                                       !- Surface Rendering Name
  {257a60d8-bf18-463c-b0ce-d4fbb8e92063}; !- Layer 1

OS:WindowMaterial:SimpleGlazingSystem,
  {257a60d8-bf18-463c-b0ce-d4fbb8e92063}, !- Handle
  {86f334eb-d0e7-4f93-b91b-f564159f7817}, !- Name
  1.9873,                                 !- U-Factor {W/m2-K}
  0.6,                                    !- Solar Heat Gain Coefficient
  0.73;                                   !- Visible Transmittance

OS:Construction,
  {8b325ec6-2d57-42b2-be5e-e0fb52a018db}, !- Handle
  Double glazing - domestic SC=0.7,       !- Name
  ,                                       !- Surface Rendering Name
  {4a56699e-6868-4e0b-9118-2cd6dad4acf3}; !- Layer 1

OS:WindowMaterial:SimpleGlazingSystem,
  {4a56699e-6868-4e0b-9118-2cd6dad4acf3}, !- Handle
  {4bbd5c0d-837b-4041-8c84-b96db7540272}, !- Name
  2.8567,                                 !- U-Factor {W/m2-K}
  0.7,                                    !- Solar Heat Gain Coefficient
  0.78;                                   !- Visible Transmittance

OS:YearDescription,
  {46fa3b5c-0e9b-4ece-ba1c-11ec18212c03}, !- Handle
  ,                                       !- Calendar Year
  Sunday,                                 !- Day of Week for Start Day
  ;                                       !- Is Leap Year

OS:ThermalZone,
  {e62df3dd-5b4e-415e-a719-bf21ad0adb6f}, !- Handle
  Atrium,                                 !- Name
  ,                                       !- Multiplier
  ,                                       !- Ceiling Height {m}
  ,                                       !- Volume {m3}
  ,                                       !- Floor Area {m2}
  ,                                       !- Zone Inside Convection Algorithm
  ,                                       !- Zone Outside Convection Algorithm
  ,                                       !- Zone Conditioning Equipment List Name
  {94ef878e-209d-4c40-b747-35be3eb9d0c4}, !- Zone Air Inlet Port List
  {7792675e-0e52-4ea8-bcd6-78813c57ee11}, !- Zone Air Exhaust Port List
  {8293b2ab-63ac-425b-9702-000529d846dd}, !- Zone Air Node Name
  {40a93968-750f-45c6-b091-97748ef34d31}, !- Zone Return Air Port List
  ,                                       !- Primary Daylighting Control Name
  ,                                       !- Fraction of Zone Controlled by Primary Daylighting Control
  ,                                       !- Secondary Daylighting Control Name
  ,                                       !- Fraction of Zone Controlled by Secondary Daylighting Control
  ,                                       !- Illuminance Map Name
  ,                                       !- Group Rendering Name
  {bb29c97e-a971-4f3f-af19-cb6838e9cc2d}, !- Thermostat Name
  No;                                     !- Use Ideal Air Loads

OS:Node,
  {6364a47c-834f-48c6-a484-6f75219a0470}, !- Handle
  Atrium Zone Air Node,                   !- Name
  {8293b2ab-63ac-425b-9702-000529d846dd}, !- Inlet Port
  ;                                       !- Outlet Port

OS:Connection,
  {8293b2ab-63ac-425b-9702-000529d846dd}, !- Handle
  {7409f1be-14a5-425f-8b61-ac2e932f2e6f}, !- Name
  {e62df3dd-5b4e-415e-a719-bf21ad0adb6f}, !- Source Object
  11,                                     !- Outlet Port
  {6364a47c-834f-48c6-a484-6f75219a0470}, !- Target Object
  2;                                      !- Inlet Port

OS:PortList,
  {94ef878e-209d-4c40-b747-35be3eb9d0c4}, !- Handle
  {7b4e0b7b-3327-4175-a711-b503ffe840c9}, !- Name
  {e62df3dd-5b4e-415e-a719-bf21ad0adb6f}, !- HVAC Component
  {cd50c3cd-6ab4-402f-9309-b2a5233e199a}; !- Port 1

OS:PortList,
  {7792675e-0e52-4ea8-bcd6-78813c57ee11}, !- Handle
  {6d3554ee-b3a3-4a49-9e69-d7fb9616f1ec}, !- Name
  {e62df3dd-5b4e-415e-a719-bf21ad0adb6f}; !- HVAC Component

OS:PortList,
  {40a93968-750f-45c6-b091-97748ef34d31}, !- Handle
  {46d932d6-ffb3-48b5-a239-da85001c57e5}, !- Name
  {e62df3dd-5b4e-415e-a719-bf21ad0adb6f}, !- HVAC Component
  {957bd6ea-23dc-4503-92db-1a53796233c4}; !- Port 1

OS:Sizing:Zone,
  {2992b61d-d3fc-43cc-9a74-805dc15c1879}, !- Handle
  {e62df3dd-5b4e-415e-a719-bf21ad0adb6f}, !- Zone or ZoneList Name
  SupplyAirTemperature,                   !- Zone Cooling Design Supply Air Temperature Input Method
  12.7777777777778,                       !- Zone Cooling Design Supply Air Temperature {C}
  11.11,                                  !- Zone Cooling Design Supply Air Temperature Difference {deltaC}
  SupplyAirTemperature,                   !- Zone Heating Design Supply Air Temperature Input Method
  50.0000000000001,                       !- Zone Heating Design Supply Air Temperature {C}
  11.11,                                  !- Zone Heating Design Supply Air Temperature Difference {deltaC}
  0.0085,                                 !- Zone Cooling Design Supply Air Humidity Ratio {kg-H2O/kg-air}
  0.008,                                  !- Zone Heating Design Supply Air Humidity Ratio {kg-H2O/kg-air}
  ,                                       !- Zone Heating Sizing Factor
  ,                                       !- Zone Cooling Sizing Factor
  DesignDay,                              !- Cooling Design Air Flow Method
  ,                                       !- Cooling Design Air Flow Rate {m3/s}
  ,                                       !- Cooling Minimum Air Flow per Zone Floor Area {m3/s-m2}
  ,                                       !- Cooling Minimum Air Flow {m3/s}
  ,                                       !- Cooling Minimum Air Flow Fraction
  DesignDay,                              !- Heating Design Air Flow Method
  ,                                       !- Heating Design Air Flow Rate {m3/s}
  ,                                       !- Heating Maximum Air Flow per Zone Floor Area {m3/s-m2}
  ,                                       !- Heating Maximum Air Flow {m3/s}
  ,                                       !- Heating Maximum Air Flow Fraction
  ,                                       !- Design Zone Air Distribution Effectiveness in Cooling Mode
  ,                                       !- Design Zone Air Distribution Effectiveness in Heating Mode
  No,                                     !- Account for Dedicated Outdoor Air System
  NeutralSupplyAir,                       !- Dedicated Outdoor Air System Control Strategy
  autosize,                               !- Dedicated Outdoor Air Low Setpoint Temperature for Design {C}
  autosize;                               !- Dedicated Outdoor Air High Setpoint Temperature for Design {C}

OS:ZoneHVAC:EquipmentList,
  {dd1f9c5a-0bf7-43f8-ba9e-9f841b8089d4}, !- Handle
  Atrium Zone HVAC Equipment List,        !- Name
  {e62df3dd-5b4e-415e-a719-bf21ad0adb6f}, !- Thermal Zone
  ,                                       !- Load Distribution Scheme
  {fc05a645-57cd-4561-897b-b869ea05ea25}, !- Zone Equipment 1
  1,                                      !- Zone Equipment Cooling Sequence 1
  1,                                      !- Zone Equipment Heating or No-Load Sequence 1
  ,                                       !- Zone Equipment Sequential Cooling Fraction 1
  ;                                       !- Zone Equipment Sequential Heating Fraction 1

OS:AdditionalProperties,
  {3b33edd9-2781-4343-9c96-924f8f043edc}, !- Handle
  {e62df3dd-5b4e-415e-a719-bf21ad0adb6f}, !- Object Name
  CADObjectId,                            !- Feature Name 1
  String,                                 !- Feature Data Type 1
  721024;                                 !- Feature Value 1

OS:ThermalZone,
  {ae477701-573b-4eaf-8185-0c725a4fa231}, !- Handle
  Corridors,                              !- Name
  ,                                       !- Multiplier
  ,                                       !- Ceiling Height {m}
  ,                                       !- Volume {m3}
  ,                                       !- Floor Area {m2}
  ,                                       !- Zone Inside Convection Algorithm
  ,                                       !- Zone Outside Convection Algorithm
  ,                                       !- Zone Conditioning Equipment List Name
  {972382c9-a626-4534-b0f4-0e21a4d8c69d}, !- Zone Air Inlet Port List
  {134ca25b-a298-4bbb-99be-4e288b687201}, !- Zone Air Exhaust Port List
  {d287c486-aad3-46c0-98c6-7615f1424706}, !- Zone Air Node Name
  {6d230315-e2be-441e-802f-291efef57764}, !- Zone Return Air Port List
  ,                                       !- Primary Daylighting Control Name
  ,                                       !- Fraction of Zone Controlled by Primary Daylighting Control
  ,                                       !- Secondary Daylighting Control Name
  ,                                       !- Fraction of Zone Controlled by Secondary Daylighting Control
  ,                                       !- Illuminance Map Name
  ,                                       !- Group Rendering Name
  {32cea3a0-4fd4-4e77-9b4e-5ab02600d3fb}, !- Thermostat Name
  No;                                     !- Use Ideal Air Loads

OS:Node,
  {64824943-28c9-4e57-8078-a8f7405fae95}, !- Handle
  Corridors Zone Air Node,                !- Name
  {d287c486-aad3-46c0-98c6-7615f1424706}, !- Inlet Port
  ;                                       !- Outlet Port

OS:Connection,
  {d287c486-aad3-46c0-98c6-7615f1424706}, !- Handle
  {d104e8fa-2725-4b73-8c3b-ef1596e7479b}, !- Name
  {ae477701-573b-4eaf-8185-0c725a4fa231}, !- Source Object
  11,                                     !- Outlet Port
  {64824943-28c9-4e57-8078-a8f7405fae95}, !- Target Object
  2;                                      !- Inlet Port

OS:PortList,
  {972382c9-a626-4534-b0f4-0e21a4d8c69d}, !- Handle
  {488fd023-27f7-4bed-bd93-a27d6a6cb5c8}, !- Name
  {ae477701-573b-4eaf-8185-0c725a4fa231}, !- HVAC Component
  {b59da8c3-4fa6-45e1-af65-32cbb096ea44}; !- Port 1

OS:PortList,
  {134ca25b-a298-4bbb-99be-4e288b687201}, !- Handle
  {768e2fdb-4686-4a09-a1ce-de64780006b3}, !- Name
  {ae477701-573b-4eaf-8185-0c725a4fa231}; !- HVAC Component

OS:PortList,
  {6d230315-e2be-441e-802f-291efef57764}, !- Handle
  {7305e3fc-3b8b-4fc9-9760-8ca3158d0e6f}, !- Name
  {ae477701-573b-4eaf-8185-0c725a4fa231}, !- HVAC Component
  {f1116d2f-559d-40db-a1ef-0481d609cb2d}; !- Port 1

OS:Sizing:Zone,
  {f342fe33-0d51-4932-b8ea-e5245edc78b1}, !- Handle
  {ae477701-573b-4eaf-8185-0c725a4fa231}, !- Zone or ZoneList Name
  SupplyAirTemperature,                   !- Zone Cooling Design Supply Air Temperature Input Method
  12.7777777777778,                       !- Zone Cooling Design Supply Air Temperature {C}
  11.11,                                  !- Zone Cooling Design Supply Air Temperature Difference {deltaC}
  SupplyAirTemperature,                   !- Zone Heating Design Supply Air Temperature Input Method
  50.0000000000001,                       !- Zone Heating Design Supply Air Temperature {C}
  11.11,                                  !- Zone Heating Design Supply Air Temperature Difference {deltaC}
  0.0085,                                 !- Zone Cooling Design Supply Air Humidity Ratio {kg-H2O/kg-air}
  0.008,                                  !- Zone Heating Design Supply Air Humidity Ratio {kg-H2O/kg-air}
  ,                                       !- Zone Heating Sizing Factor
  ,                                       !- Zone Cooling Sizing Factor
  DesignDay,                              !- Cooling Design Air Flow Method
  ,                                       !- Cooling Design Air Flow Rate {m3/s}
  ,                                       !- Cooling Minimum Air Flow per Zone Floor Area {m3/s-m2}
  ,                                       !- Cooling Minimum Air Flow {m3/s}
  ,                                       !- Cooling Minimum Air Flow Fraction
  DesignDay,                              !- Heating Design Air Flow Method
  ,                                       !- Heating Design Air Flow Rate {m3/s}
  ,                                       !- Heating Maximum Air Flow per Zone Floor Area {m3/s-m2}
  ,                                       !- Heating Maximum Air Flow {m3/s}
  ,                                       !- Heating Maximum Air Flow Fraction
  ,                                       !- Design Zone Air Distribution Effectiveness in Cooling Mode
  ,                                       !- Design Zone Air Distribution Effectiveness in Heating Mode
  No,                                     !- Account for Dedicated Outdoor Air System
  NeutralSupplyAir,                       !- Dedicated Outdoor Air System Control Strategy
  autosize,                               !- Dedicated Outdoor Air Low Setpoint Temperature for Design {C}
  autosize;                               !- Dedicated Outdoor Air High Setpoint Temperature for Design {C}

OS:ZoneHVAC:EquipmentList,
  {391e8123-a57d-441c-9b56-18f83e9df643}, !- Handle
  Corridors Zone HVAC Equipment List,     !- Name
  {ae477701-573b-4eaf-8185-0c725a4fa231}, !- Thermal Zone
  ,                                       !- Load Distribution Scheme
  {21220dea-76c0-4557-8566-81f6b5705c5c}, !- Zone Equipment 1
  1,                                      !- Zone Equipment Cooling Sequence 1
  1,                                      !- Zone Equipment Heating or No-Load Sequence 1
  ,                                       !- Zone Equipment Sequential Cooling Fraction 1
  ;                                       !- Zone Equipment Sequential Heating Fraction 1

OS:AdditionalProperties,
  {525673df-5ba5-44d2-a42c-f3d42f17c62a}, !- Handle
  {ae477701-573b-4eaf-8185-0c725a4fa231}, !- Object Name
  CADObjectId,                            !- Feature Name 1
  String,                                 !- Feature Data Type 1
  721026;                                 !- Feature Value 1

OS:ThermalZone,
  {3faaf508-7428-43d6-a472-46f8b88fd806}, !- Handle
  Dressing,                               !- Name
  ,                                       !- Multiplier
  ,                                       !- Ceiling Height {m}
  ,                                       !- Volume {m3}
  ,                                       !- Floor Area {m2}
  ,                                       !- Zone Inside Convection Algorithm
  ,                                       !- Zone Outside Convection Algorithm
  ,                                       !- Zone Conditioning Equipment List Name
  {4665582d-af94-4e77-9e2a-67df040fe907}, !- Zone Air Inlet Port List
  {a4e9e699-9c61-461a-a29e-94393c2565e5}, !- Zone Air Exhaust Port List
  {1af9fd51-b50f-4571-baf2-b8aaf122cb2e}, !- Zone Air Node Name
  {61405533-8c08-46e2-8375-e5ad9cea4729}, !- Zone Return Air Port List
  ,                                       !- Primary Daylighting Control Name
  ,                                       !- Fraction of Zone Controlled by Primary Daylighting Control
  ,                                       !- Secondary Daylighting Control Name
  ,                                       !- Fraction of Zone Controlled by Secondary Daylighting Control
  ,                                       !- Illuminance Map Name
  ,                                       !- Group Rendering Name
  {9c5e6dc4-85bc-4703-9ecb-9c5e43dfcd27}, !- Thermostat Name
  No;                                     !- Use Ideal Air Loads

OS:Node,
  {432235d6-fa53-468c-9d50-c89c59e9d8e9}, !- Handle
  Dressing Zone Air Node,                 !- Name
  {1af9fd51-b50f-4571-baf2-b8aaf122cb2e}, !- Inlet Port
  ;                                       !- Outlet Port

OS:Connection,
  {1af9fd51-b50f-4571-baf2-b8aaf122cb2e}, !- Handle
  {979da7e4-e858-44c8-afe3-3d1e7ce7baf7}, !- Name
  {3faaf508-7428-43d6-a472-46f8b88fd806}, !- Source Object
  11,                                     !- Outlet Port
  {432235d6-fa53-468c-9d50-c89c59e9d8e9}, !- Target Object
  2;                                      !- Inlet Port

OS:PortList,
  {4665582d-af94-4e77-9e2a-67df040fe907}, !- Handle
  {df4227f1-0811-4c9b-b588-bb41ae81788f}, !- Name
  {3faaf508-7428-43d6-a472-46f8b88fd806}, !- HVAC Component
  {78252129-2927-4173-aaf9-430680790770}; !- Port 1

OS:PortList,
  {a4e9e699-9c61-461a-a29e-94393c2565e5}, !- Handle
  {a6b10452-3a76-449c-91de-05a2fad270b3}, !- Name
  {3faaf508-7428-43d6-a472-46f8b88fd806}; !- HVAC Component

OS:PortList,
  {61405533-8c08-46e2-8375-e5ad9cea4729}, !- Handle
  {352764b5-e2e1-4ede-b856-7056c2be5651}, !- Name
  {3faaf508-7428-43d6-a472-46f8b88fd806}, !- HVAC Component
  {aba7be0b-290e-4523-b439-599fadcfad67}; !- Port 1

OS:Sizing:Zone,
  {db9e0058-67be-494a-9eea-b64715398c69}, !- Handle
  {3faaf508-7428-43d6-a472-46f8b88fd806}, !- Zone or ZoneList Name
  SupplyAirTemperature,                   !- Zone Cooling Design Supply Air Temperature Input Method
  12.7777777777778,                       !- Zone Cooling Design Supply Air Temperature {C}
  11.11,                                  !- Zone Cooling Design Supply Air Temperature Difference {deltaC}
  SupplyAirTemperature,                   !- Zone Heating Design Supply Air Temperature Input Method
  50.0000000000001,                       !- Zone Heating Design Supply Air Temperature {C}
  11.11,                                  !- Zone Heating Design Supply Air Temperature Difference {deltaC}
  0.0085,                                 !- Zone Cooling Design Supply Air Humidity Ratio {kg-H2O/kg-air}
  0.008,                                  !- Zone Heating Design Supply Air Humidity Ratio {kg-H2O/kg-air}
  ,                                       !- Zone Heating Sizing Factor
  ,                                       !- Zone Cooling Sizing Factor
  DesignDay,                              !- Cooling Design Air Flow Method
  ,                                       !- Cooling Design Air Flow Rate {m3/s}
  ,                                       !- Cooling Minimum Air Flow per Zone Floor Area {m3/s-m2}
  ,                                       !- Cooling Minimum Air Flow {m3/s}
  ,                                       !- Cooling Minimum Air Flow Fraction
  DesignDay,                              !- Heating Design Air Flow Method
  ,                                       !- Heating Design Air Flow Rate {m3/s}
  ,                                       !- Heating Maximum Air Flow per Zone Floor Area {m3/s-m2}
  ,                                       !- Heating Maximum Air Flow {m3/s}
  ,                                       !- Heating Maximum Air Flow Fraction
  ,                                       !- Design Zone Air Distribution Effectiveness in Cooling Mode
  ,                                       !- Design Zone Air Distribution Effectiveness in Heating Mode
  No,                                     !- Account for Dedicated Outdoor Air System
  NeutralSupplyAir,                       !- Dedicated Outdoor Air System Control Strategy
  autosize,                               !- Dedicated Outdoor Air Low Setpoint Temperature for Design {C}
  autosize;                               !- Dedicated Outdoor Air High Setpoint Temperature for Design {C}

OS:ZoneHVAC:EquipmentList,
  {2d362595-2c4d-445d-af42-42d6f61a64ac}, !- Handle
  Dressing Zone HVAC Equipment List,      !- Name
  {3faaf508-7428-43d6-a472-46f8b88fd806}, !- Thermal Zone
  ,                                       !- Load Distribution Scheme
  {9826404f-703f-442b-89ca-274c34b8ebd8}, !- Zone Equipment 1
  1,                                      !- Zone Equipment Cooling Sequence 1
  1,                                      !- Zone Equipment Heating or No-Load Sequence 1
  ,                                       !- Zone Equipment Sequential Cooling Fraction 1
  ;                                       !- Zone Equipment Sequential Heating Fraction 1

OS:AdditionalProperties,
  {21bc188c-9788-4655-8c49-4b34716ca712}, !- Handle
  {3faaf508-7428-43d6-a472-46f8b88fd806}, !- Object Name
  CADObjectId,                            !- Feature Name 1
  String,                                 !- Feature Data Type 1
  721032;                                 !- Feature Value 1

OS:ThermalZone,
  {0e68c539-1e58-4ffb-bfb8-46b55169df9e}, !- Handle
  Gymnasium,                              !- Name
  ,                                       !- Multiplier
  ,                                       !- Ceiling Height {m}
  ,                                       !- Volume {m3}
  ,                                       !- Floor Area {m2}
  ,                                       !- Zone Inside Convection Algorithm
  ,                                       !- Zone Outside Convection Algorithm
  ,                                       !- Zone Conditioning Equipment List Name
  {23517d16-2c6f-4206-9536-5c21044cabb3}, !- Zone Air Inlet Port List
  {2d73023f-4b22-4018-92fb-1cd5730a9d94}, !- Zone Air Exhaust Port List
  {432eefbf-8647-408a-b611-8d6d365ab09a}, !- Zone Air Node Name
  {c209d563-b76f-4471-af01-14ef6a013911}, !- Zone Return Air Port List
  ,                                       !- Primary Daylighting Control Name
  ,                                       !- Fraction of Zone Controlled by Primary Daylighting Control
  ,                                       !- Secondary Daylighting Control Name
  ,                                       !- Fraction of Zone Controlled by Secondary Daylighting Control
  ,                                       !- Illuminance Map Name
  ,                                       !- Group Rendering Name
  {91d0dc26-79ba-4434-8cd1-d220a58c74f2}, !- Thermostat Name
  No;                                     !- Use Ideal Air Loads

OS:Node,
  {af3b9380-5e87-4e53-8fa9-4944a5f4a0f8}, !- Handle
  Gymnasium Zone Air Node,                !- Name
  {432eefbf-8647-408a-b611-8d6d365ab09a}, !- Inlet Port
  ;                                       !- Outlet Port

OS:Connection,
  {432eefbf-8647-408a-b611-8d6d365ab09a}, !- Handle
  {aa5e9d94-ba29-4585-b4c1-41f9e81e88c9}, !- Name
  {0e68c539-1e58-4ffb-bfb8-46b55169df9e}, !- Source Object
  11,                                     !- Outlet Port
  {af3b9380-5e87-4e53-8fa9-4944a5f4a0f8}, !- Target Object
  2;                                      !- Inlet Port

OS:PortList,
  {23517d16-2c6f-4206-9536-5c21044cabb3}, !- Handle
  {d4fd8e4e-4ff9-4a1c-a41e-932807c871a5}, !- Name
  {0e68c539-1e58-4ffb-bfb8-46b55169df9e}, !- HVAC Component
  {b68c0ccf-357f-4b36-b450-ce0d5a32a364}; !- Port 1

OS:PortList,
  {2d73023f-4b22-4018-92fb-1cd5730a9d94}, !- Handle
  {c7a67ea4-bead-47f4-ba66-5e029833ac06}, !- Name
  {0e68c539-1e58-4ffb-bfb8-46b55169df9e}; !- HVAC Component

OS:PortList,
  {c209d563-b76f-4471-af01-14ef6a013911}, !- Handle
  {fab253cb-209a-4212-8862-1d3b2ef38c69}, !- Name
  {0e68c539-1e58-4ffb-bfb8-46b55169df9e}, !- HVAC Component
  {89d480ea-5e5a-4d05-b5a6-3f6c6ca02234}; !- Port 1

OS:Sizing:Zone,
  {8ebb2e15-f0d0-42a4-b726-98726ea7435f}, !- Handle
  {0e68c539-1e58-4ffb-bfb8-46b55169df9e}, !- Zone or ZoneList Name
  SupplyAirTemperature,                   !- Zone Cooling Design Supply Air Temperature Input Method
  12.7777777777778,                       !- Zone Cooling Design Supply Air Temperature {C}