
OS:Version,
  {06ada558-e28f-458b-942a-e0e97f025c6a}, !- Handle
  2.3.0;                                  !- Version Identifier

OS:Site,
  {9e5fbfd2-83ce-44ea-bdd1-a8a42679ddb2}, !- Handle
  Aurora Buckley Field Angb_CO_USA,       !- Name
  39.72,                                  !- Latitude {deg}
  -104.75,                                !- Longitude {deg}
  -7,                                     !- Time Zone {hr}
  1726,                                   !- Elevation {m}
  City;                                   !- Terrain

OS:SimulationControl,
  {3576ed6f-56ad-47dd-99f2-291e952fbbf0}, !- Handle
  Yes,                                    !- Do Zone Sizing Calculation
  Yes,                                    !- Do System Sizing Calculation
  Yes,                                    !- Do Plant Sizing Calculation
  No,                                     !- Run Simulation for Sizing Periods
  Yes,                                    !- Run Simulation for Weather File Run Periods
  0.04,                                   !- Loads Convergence Tolerance Value
  0.2,                                    !- Temperature Convergence Tolerance Value {deltaC}
  FullExterior,                           !- Solar Distribution
  25,                                     !- Maximum Number of Warmup Days
  6;                                      !- Minimum Number of Warmup Days

OS:Surface,
  {cb134a62-b38a-4fc3-b1c0-3f36e65e067b}, !- Handle
  Corner_Class_1_Pod_1 - Floor:a,         !- Name
  Floor,                                  !- Surface Type
  ,                                       !- Construction Name
  {af787c19-d8db-44c1-b35b-1842c7727820}, !- Space Name
  Ground,                                 !- Outside Boundary Condition
  ,                                       !- Outside Boundary Condition Object
  NoSun,                                  !- Sun Exposure
  NoWind,                                 !- Wind Exposure
  ,                                       !- View Factor to Ground
  ,                                       !- Number of Vertices
  11, 9, 0,                               !- X,Y,Z Vertex 1 {m}
  11, 0, 0,                               !- X,Y,Z Vertex 2 {m}
  0, 0, 0,                                !- X,Y,Z Vertex 3 {m}
  0, 9, 0;                                !- X,Y,Z Vertex 4 {m}

OS:Construction,
  {cb08f881-dafd-4fb9-9be6-c984a0dff53e}, !- Handle
  ASHRAE 90.1-1999_Table B-2_Unheated_Ext-slab, !- Name
  {5835356b-ac73-4406-bae3-4f675b304ad5}, !- Surface Rendering Name
  {2d353d9b-41fb-4a8f-99b5-ae3e4a77b89b}, !- Layer 1
  {12753ae3-1942-4400-91cb-83b087c07f88}; !- Layer 2

OS:Material,
  {2d353d9b-41fb-4a8f-99b5-ae3e4a77b89b}, !- Handle
  MAT-CC05 8 HW CONCRETE,                 !- Name
  Rough,                                  !- Roughness
  0.2032,                                 !- Thickness {m}
  1.311,                                  !- Conductivity {W/m-K}
  2240,                                   !- Density {kg/m3}
  836.8,                                  !- Specific Heat {J/kg-K}
  0.9,                                    !- Thermal Absorptance
  0.7,                                    !- Solar Absorptance
  0.7;                                    !- Visible Absorptance

OS:Material:NoMass,
  {12753ae3-1942-4400-91cb-83b087c07f88}, !- Handle
  CP02 CARPET PAD,                        !- Name
  VeryRough,                              !- Roughness
  0.2165,                                 !- Thermal Resistance {m2-K/W}
  0.9,                                    !- Thermal Absorptance
  0.7,                                    !- Solar Absorptance
  0.8;                                    !- Visible Absorptance

OS:Space,
  {af787c19-d8db-44c1-b35b-1842c7727820}, !- Handle
  Corner_Class_1_Pod_1,                   !- Name
  {9e245989-9976-4431-a34b-800bc4f02e3b}, !- Space Type Name
  ,                                       !- Default Construction Set Name
  ,                                       !- Default Schedule Set Name
  -0,                                     !- Direction of Relative North {deg}
  -48.006,                                !- X Origin {m}
  0,                                      !- Y Origin {m}
  0,                                      !- Z Origin {m}
  {cd3beed0-14e3-4dd5-ad43-7cd1f88ad273}, !- Building Story Name
  {ad6b9561-b370-4dc4-8f23-61d3d38b3600}, !- Thermal Zone Name
  Yes,                                    !- Part of Total Floor Area
  ;                                       !- Design Specification Outdoor Air Object Name

OS:ThermostatSetpoint:DualSetpoint,
  {d46a523e-69e9-4514-a141-88de642393c6}, !- Handle
  {982dd388-445e-4855-824b-ead8ff462b3a}, !- Name
  {248b64bb-0eb1-483f-87c2-45984f83102d}, !- Heating Setpoint Temperature Schedule Name
  {67368307-c5c4-4963-8ec0-d9cecb2f9747}; !- Cooling Setpoint Temperature Schedule Name

OS:Schedule:Compact,
  {248b64bb-0eb1-483f-87c2-45984f83102d}, !- Handle
  HtgSetP_Sch,                            !- Name
  {13bab4f5-2c5d-40b2-b898-a10ce85228f5}, !- Schedule Type Limits Name
  Through: 6/30,                          !- Field 1
  For: WinterDesignDay,                   !- Field 2
  Until: 24:00,                           !- Field 3
  21.7,                                   !- Field 4
  For: Weekdays,                          !- Field 5
  Until: 06:00,                           !- Field 6
  15.6,                                   !- Field 7
  Until: 18:00,                           !- Field 8
  21.7,                                   !- Field 9
  Until: 24:00,                           !- Field 10
  15.6,                                   !- Field 11
  For: AllOtherDays,                      !- Field 12
  Until: 24:00,                           !- Field 13
  15.6,                                   !- Field 14
  Through: 9/1,                           !- Field 15
  For: WinterDesignDay,                   !- Field 16
  Until: 24:00,                           !- Field 17
  21.7,                                   !- Field 18
  For: Weekdays,                          !- Field 19
  Until: 08:00,                           !- Field 20
  15.6,                                   !- Field 21
  Until: 13:00,                           !- Field 22
  21.7,                                   !- Field 23
  Until: 24:00,                           !- Field 24
  15.6,                                   !- Field 25
  For: AllOtherDays,                      !- Field 26
  Until: 24:00,                           !- Field 27
  15.6,                                   !- Field 28
  Through: 12/31,                         !- Field 29
  For: WinterDesignDay,                   !- Field 30
  Until: 24:00,                           !- Field 31
  21.7,                                   !- Field 32
  For: Weekdays,                          !- Field 33
  Until: 06:00,                           !- Field 34
  15.6,                                   !- Field 35
  Until: 18:00,                           !- Field 36
  21.7,                                   !- Field 37
  Until: 24:00,                           !- Field 38
  15.6,                                   !- Field 39
  For: AllOtherDays,                      !- Field 40
  Until: 24:00,                           !- Field 41
  15.6;                                   !- Field 42

OS:ScheduleTypeLimits,
  {13bab4f5-2c5d-40b2-b898-a10ce85228f5}, !- Handle
  Temperature,                            !- Name
  -60,                                    !- Lower Limit Value
  200,                                    !- Upper Limit Value
  CONTINUOUS,                             !- Numeric Type
  Temperature;                            !- Unit Type

OS:Schedule:Compact,
  {67368307-c5c4-4963-8ec0-d9cecb2f9747}, !- Handle
  ClgSetP_Sch,                            !- Name
  {13bab4f5-2c5d-40b2-b898-a10ce85228f5}, !- Schedule Type Limits Name
  Through: 6/30,                          !- Field 1
  For: SummerDesignDay,                   !- Field 2
  Until: 24:00,                           !- Field 3
  23.3,                                   !- Field 4
  For: Weekdays,                          !- Field 5
  Until: 06:00,                           !- Field 6
  27.2,                                   !- Field 7
  Until: 18:00,                           !- Field 8
  23.3,                                   !- Field 9
  Until: 24:00,                           !- Field 10
  27.2,                                   !- Field 11
  For: AllOtherDays,                      !- Field 12
  Until: 24:00,                           !- Field 13
  27.2,                                   !- Field 14
  Through: 9/1,                           !- Field 15
  For: SummerDesignDay,                   !- Field 16
  Until: 24:00,                           !- Field 17
  23.3,                                   !- Field 18
  For: Weekdays,                          !- Field 19
  Until: 08:00,                           !- Field 20
  27.2,                                   !- Field 21
  Until: 13:00,                           !- Field 22
  23.3,                                   !- Field 23
  Until: 24:00,                           !- Field 24
  27.2,                                   !- Field 25
  For: AllOtherDays,                      !- Field 26
  Until: 24:00,                           !- Field 27
  27.2,                                   !- Field 28
  Through: 12/31,                         !- Field 29
  For: SummerDesignDay,                   !- Field 30
  Until: 24:00,                           !- Field 31
  23.3,                                   !- Field 32
  For: Weekdays,                          !- Field 33
  Until: 06:00,                           !- Field 34
  27.2,                                   !- Field 35
  Until: 18:00,                           !- Field 36
  23.3,                                   !- Field 37
  Until: 24:00,                           !- Field 38
  27.2,                                   !- Field 39
  For: AllOtherDays,                      !- Field 40
  Until: 24:00,                           !- Field 41
  27.2;                                   !- Field 42

OS:Curve:Biquadratic,
  {d00ff85d-5606-4149-b8fa-0247586fc6da}, !- Handle
  PSZ-AC_2:6_CoolC 1_ClgCapFuncTempCurve, !- Name
  0.42415,                                !- Coefficient1 Constant
  0.04426,                                !- Coefficient2 x
  -0.00042,                               !- Coefficient3 x**2
  0.00333,                                !- Coefficient4 y
  -8e-05,                                 !- Coefficient5 y**2
  -0.00021,                               !- Coefficient6 x*y
  17,                                     !- Minimum Value of x
  22,                                     !- Maximum Value of x
  13,                                     !- Minimum Value of y
  46;                                     !- Maximum Value of y

OS:Surface,
  {2f6a151f-4fbd-419a-a2bd-fafb9d6c7c4f}, !- Handle
  Lobby - Floor:a,                        !- Name
  Floor,                                  !- Surface Type
  ,                                       !- Construction Name
  {3c90ddbf-37c7-4642-8e3f-c37ca2f084f0}, !- Space Name
  Ground,                                 !- Outside Boundary Condition
  ,                                       !- Outside Boundary Condition Object
  NoSun,                                  !- Sun Exposure
  NoWind,                                 !- Wind Exposure
  ,                                       !- View Factor to Ground
  ,                                       !- Number of Vertices
  19, 9, 0,                               !- X,Y,Z Vertex 1 {m}
  19, 0, 0,                               !- X,Y,Z Vertex 2 {m}
  0, 0, 0,                                !- X,Y,Z Vertex 3 {m}
  0, 9, 0;                                !- X,Y,Z Vertex 4 {m}

OS:Space,
  {3c90ddbf-37c7-4642-8e3f-c37ca2f084f0}, !- Handle
  Lobby 2,                                !- Name
  {1d19b696-1d23-4be6-b703-36022d9180d3}, !- Space Type Name
  ,                                       !- Default Construction Set Name
  ,                                       !- Default Schedule Set Name
  -0,                                     !- Direction of Relative North {deg}
  0,                                      !- X Origin {m}
  0,                                      !- Y Origin {m}
  0,                                      !- Z Origin {m}
  {cd3beed0-14e3-4dd5-ad43-7cd1f88ad273}, !- Building Story Name
  {1361fef1-a3a2-4453-9d42-e54b0663f554}, !- Thermal Zone Name
  Yes,                                    !- Part of Total Floor Area
  ;                                       !- Design Specification Outdoor Air Object Name

OS:ThermostatSetpoint:DualSetpoint,
  {5061cfd2-79aa-43a6-9ccc-ec57495c0135}, !- Handle
  {e49c2188-a3b9-4ec1-a338-fe7556d442de}, !- Name
  {248b64bb-0eb1-483f-87c2-45984f83102d}, !- Heating Setpoint Temperature Schedule Name
  {67368307-c5c4-4963-8ec0-d9cecb2f9747}; !- Cooling Setpoint Temperature Schedule Name

OS:Space,
  {e3939cd2-c4b3-447f-a468-b8815bff597f}, !- Handle
  Mult_Class_2_Pod_1,                     !- Name
  {9e245989-9976-4431-a34b-800bc4f02e3b}, !- Space Type Name
  ,                                       !- Default Construction Set Name
  ,                                       !- Default Schedule Set Name
  -0,                                     !- Direction of Relative North {deg}
  -37.006,                                !- X Origin {m}
  12,                                     !- Y Origin {m}
  0,                                      !- Z Origin {m}
  {cd3beed0-14e3-4dd5-ad43-7cd1f88ad273}, !- Building Story Name
  {346a8a4a-f01d-4380-8cd4-929279ef710a}, !- Thermal Zone Name
  Yes,                                    !- Part of Total Floor Area
  ;                                       !- Design Specification Outdoor Air Object Name

OS:ThermostatSetpoint:DualSetpoint,
  {cda41a1c-4dce-4e9e-b546-5b7c4e9ac629}, !- Handle
  {8347a9d6-965e-471b-bf3e-671ed5a2044e}, !- Name
  {248b64bb-0eb1-483f-87c2-45984f83102d}, !- Heating Setpoint Temperature Schedule Name
  {67368307-c5c4-4963-8ec0-d9cecb2f9747}; !- Cooling Setpoint Temperature Schedule Name

OS:ScheduleTypeLimits,
  {99221d18-1046-41d4-9ae0-caa8e5ef0113}, !- Handle
  Fraction,                               !- Name
  0,                                      !- Lower Limit Value
  1,                                      !- Upper Limit Value
  CONTINUOUS;                             !- Numeric Type

OS:Space,
  {4ba7d84a-a2f5-4b10-b55d-cac5c29483ab}, !- Handle
  Mult_Class_2_Pod_3,                     !- Name
  {9e245989-9976-4431-a34b-800bc4f02e3b}, !- Space Type Name
  ,                                       !- Default Construction Set Name
  ,                                       !- Default Schedule Set Name
  -0,                                     !- Direction of Relative North {deg}
  -37.006,                                !- X Origin {m}
  42,                                     !- Y Origin {m}
  0,                                      !- Z Origin {m}
  {cd3beed0-14e3-4dd5-ad43-7cd1f88ad273}, !- Building Story Name
  {85998c75-a059-4110-a052-76bbbe8a5004}, !- Thermal Zone Name
  Yes,                                    !- Part of Total Floor Area
  ;                                       !- Design Specification Outdoor Air Object Name

OS:ThermostatSetpoint:DualSetpoint,
  {ca8bead0-dab8-49f8-aeb6-6e116bc68ba2}, !- Handle
  {13351632-5d3d-474f-82c9-bbb6f4ffbc44}, !- Name
  {248b64bb-0eb1-483f-87c2-45984f83102d}, !- Heating Setpoint Temperature Schedule Name
  {67368307-c5c4-4963-8ec0-d9cecb2f9747}; !- Cooling Setpoint Temperature Schedule Name

OS:Curve:Biquadratic,
  {cc5b41bf-60fe-4244-ba8c-a4a2a5a68693}, !- Handle
  PSZ-AC_1:5_CoolC 2_ClgCapFuncTempCurve, !- Name
  0.42415,                                !- Coefficient1 Constant
  0.04426,                                !- Coefficient2 x
  -0.00042,                               !- Coefficient3 x**2
  0.00333,                                !- Coefficient4 y
  -8e-05,                                 !- Coefficient5 y**2
  -0.00021,                               !- Coefficient6 x*y
  17,                                     !- Minimum Value of x
  22,                                     !- Maximum Value of x
  13,                                     !- Minimum Value of y
  46;                                     !- Maximum Value of y

OS:Curve:Cubic,
  {3787b81e-a1ac-4ce9-8c32-b3799415a84c}, !- Handle
  Kitchen_WalkInFreezer_Case:1_DefrostEnergyCorrectionCurve, !- Name
  0.0236,                                 !- Coefficient1 Constant
  0.0006,                                 !- Coefficient2 x
  0,                                      !- Coefficient3 x**2
  0,                                      !- Coefficient4 x**3
  -35,                                    !- Minimum Value of x
  20;                                     !- Maximum Value of x

OS:Surface,
  {e0a9061c-80b2-474c-b352-5909593aa19f}, !- Handle
  Mult_Class_2_Pod_1 - Wall 180:a,        !- Name
  Wall,                                   !- Surface Type
  ,                                       !- Construction Name
  {e3939cd2-c4b3-447f-a468-b8815bff597f}, !- Space Name
  Surface,                                !- Outside Boundary Condition
  {6de64402-1945-444d-9ed7-a777ed756cd3}, !- Outside Boundary Condition Object
  NoSun,                                  !- Sun Exposure
  NoWind,                                 !- Wind Exposure
  ,                                       !- View Factor to Ground
  ,                                       !- Number of Vertices
  0, 0, 4,                                !- X,Y,Z Vertex 1 {m}
  0, 0, 0,                                !- X,Y,Z Vertex 2 {m}
  37.006, 0, 0,                           !- X,Y,Z Vertex 3 {m}
  37.006, 0, 4;                           !- X,Y,Z Vertex 4 {m}

OS:Construction,
  {209978b7-82ab-4d07-9e7e-d40a1c86fddd}, !- Handle
  Standard_Int-Wall,                      !- Name
  {4804a70f-7264-4185-ae1e-817e89cfe095}, !- Surface Rendering Name
  {be959c7f-c4ab-463f-b85e-73dcbe4ecea3}, !- Layer 1
  {be959c7f-c4ab-463f-b85e-73dcbe4ecea3}; !- Layer 2

OS:Material,
  {be959c7f-c4ab-463f-b85e-73dcbe4ecea3}, !- Handle
  GP01 1/2 GYPSUM - adj,                  !- Name
  Smooth,                                 !- Roughness
  0.0127,                                 !- Thickness {m}
  0.16,                                   !- Conductivity {W/m-K}
  800,                                    !- Density {kg/m3}
  1090,                                   !- Specific Heat {J/kg-K}
  0.9,                                    !- Thermal Absorptance
  0.7,                                    !- Solar Absorptance
  0.3;                                    !- Visible Absorptance

OS:People:Definition,
  {156eec19-cd22-4d02-a326-114d68849302}, !- Handle
  Art_Class People Definition,            !- Name
  People/Area,                            !- Number of People Calculation Method
  ,                                       !- Number of People {people}
  0.215278208334194,                      !- People per Space Floor Area {person/m2}
  ,                                       !- Space Floor Area per Person {m2/person}
  0.3,                                    !- Fraction Radiant
  ,                                       !- Sensible Heat Fraction
  3.82e-08,                               !- Carbon Dioxide Generation Rate {m3/s-W}
  No,                                     !- Enable ASHRAE 55 Comfort Warnings
  ZoneAveraged,                           !- Mean Radiant Temperature Calculation Type
  FANGER;                                 !- Thermal Comfort Model Type 1

OS:People,
  {64257724-ee59-4e97-a534-d55ba988c9e8}, !- Handle
  Art_Class People,                       !- Name
  {156eec19-cd22-4d02-a326-114d68849302}, !- People Definition Name
  {e8cd9cfc-693d-446a-8acc-2eacc8f3925b}, !- Space or SpaceType Name
  {74c9d89e-ac7c-4f36-abf8-1cd45edbf2c5}, !- Number of People Schedule Name
  {cc3b5b1c-01c1-406f-b15b-f8328a8c2236}, !- Activity Level Schedule Name
  ,                                       !- Surface Name/Angle Factor List Name
  {1cce09fd-6793-435f-b00a-ea3df317bccf}, !- Work Efficiency Schedule Name
  {cdc29973-ef36-49fe-92be-080633003d2e}, !- Clothing Insulation Schedule Name
  {f8206ebc-10c7-4972-bdf6-8c3047cfe7d3}; !- Air Velocity Schedule Name

OS:Space,
  {927a81f9-983d-47a1-9c13-fa09a37bc6bd}, !- Handle
  Art_Class 1,                            !- Name
  {e8cd9cfc-693d-446a-8acc-2eacc8f3925b}, !- Space Type Name
  ,                                       !- Default Construction Set Name
  ,                                       !- Default Schedule Set Name
  -0,                                     !- Direction of Relative North {deg}
  -18,                                    !- X Origin {m}
  42,                                     !- Y Origin {m}
  0,                                      !- Z Origin {m}
  {cd3beed0-14e3-4dd5-ad43-7cd1f88ad273}, !- Building Story Name
  {8e521ec8-5c96-4a40-8c8d-bf4c1292bc0b}, !- Thermal Zone Name
  Yes,                                    !- Part of Total Floor Area
  ;                                       !- Design Specification Outdoor Air Object Name

OS:ThermostatSetpoint:DualSetpoint,
  {5924ba1f-1555-4219-a85c-516edfc47672}, !- Handle
  {e4084945-ee09-4098-bc6d-b3764246c092}, !- Name
  {248b64bb-0eb1-483f-87c2-45984f83102d}, !- Heating Setpoint Temperature Schedule Name
  {67368307-c5c4-4963-8ec0-d9cecb2f9747}; !- Cooling Setpoint Temperature Schedule Name

OS:ScheduleTypeLimits,
  {8402c632-608a-4fa6-a17c-350e1e64360b}, !- Handle
  {75501a8d-0514-4dc5-803d-21186521e536}; !- Name

OS:ScheduleTypeLimits,
  {9f8d1409-384c-4b96-9fad-942754536725}, !- Handle
  ActivityLevel,                          !- Name
  0,                                      !- Lower Limit Value
  ,                                       !- Upper Limit Value
  Continuous,                             !- Numeric Type
  ActivityLevel;                          !- Unit Type

OS:Schedule:Compact,
  {1cce09fd-6793-435f-b00a-ea3df317bccf}, !- Handle
  Work_Eff_Sch,                           !- Name
  {99221d18-1046-41d4-9ae0-caa8e5ef0113}, !- Schedule Type Limits Name
  Through: 12/31,                         !- Field 1
  For: AllDays,                           !- Field 2
  Until: 24:00,                           !- Field 3
  0;                                      !- Field 4

OS:Schedule:Compact,
  {cdc29973-ef36-49fe-92be-080633003d2e}, !- Handle
  Clothing_Sch,                           !- Name
  {cad2e989-41d7-4348-b886-9b8897e9460a}, !- Schedule Type Limits Name
  Through: 04/30,                         !- Field 1
  For: AllDays,                           !- Field 2
  Until: 24:00,                           !- Field 3
  1.1,                                    !- Field 4
  Through: 09/30,                         !- Field 5
  For: AllDays,                           !- Field 6
  Until: 24:00,                           !- Field 7
  0.6,                                    !- Field 8
  Through: 12/31,                         !- Field 9
  For: AllDays,                           !- Field 10
  Until: 24:00,                           !- Field 11
  1.1;                                    !- Field 12

OS:ScheduleTypeLimits,
  {dff7d23f-3624-49c3-8c35-441ef0f24ec0}, !- Handle
  {2b9403a1-917a-4826-8f84-ccd0da729ccb}; !- Name

OS:ScheduleTypeLimits,
  {cad2e989-41d7-4348-b886-9b8897e9460a}, !- Handle
  ClothingInsulation,                     !- Name
  0,                                      !- Lower Limit Value
  ,                                       !- Upper Limit Value
  Continuous,                             !- Numeric Type
  ClothingInsulation;                     !- Unit Type

OS:Schedule:Compact,
  {f8206ebc-10c7-4972-bdf6-8c3047cfe7d3}, !- Handle
  Air_Velo_Sch,                           !- Name
  {c7323ea1-e841-4d1a-85a4-5a85d7ec4196}, !- Schedule Type Limits Name
  Through: 12/31,                         !- Field 1
  For: AllDays,                           !- Field 2
  Until: 24:00,                           !- Field 3
  0.2;                                    !- Field 4

OS:ScheduleTypeLimits,
  {14e5fdf0-1d1a-4c39-8d2d-02238a3b9dac}, !- Handle
  {a417465a-2c47-4c5f-a7b0-2b541e42efbb}; !- Name

OS:ScheduleTypeLimits,
  {c7323ea1-e841-4d1a-85a4-5a85d7ec4196}, !- Handle
  Velocity,                               !- Name
  0,                                      !- Lower Limit Value
  ,                                       !- Upper Limit Value
  Continuous,                             !- Numeric Type
  Velocity;                               !- Unit Type

OS:ThermostatSetpoint:DualSetpoint,
  {10f61cba-41a1-4886-a98f-4c66cb790226}, !- Handle
  {cf8d945d-71e5-4145-a1de-308b59bb04af}, !- Name
  {248b64bb-0eb1-483f-87c2-45984f83102d}, !- Heating Setpoint Temperature Schedule Name
  {67368307-c5c4-4963-8ec0-d9cecb2f9747}; !- Cooling Setpoint Temperature Schedule Name

OS:Surface,
  {92baba5b-a90e-4e7a-b466-b1c85ae7cb4d}, !- Handle
  Media_Center - Wall 180:a,              !- Name
  Wall,                                   !- Surface Type
  ,                                       !- Construction Name
  {bff400c4-fbdd-4f04-ac7f-115b4620ec5d}, !- Space Name
  Surface,                                !- Outside Boundary Condition
  {90610f2e-3494-4039-ae1a-ce6a9425398f}, !- Outside Boundary Condition Object
  NoSun,                                  !- Sun Exposure
  NoWind,                                 !- Wind Exposure
  ,                                       !- View Factor to Ground
  ,                                       !- Number of Vertices
  0, 0, 4,                                !- X,Y,Z Vertex 1 {m}
  0, 0, 0,                                !- X,Y,Z Vertex 2 {m}
  19, 0, 0,                               !- X,Y,Z Vertex 3 {m}
  19, 0, 4;                               !- X,Y,Z Vertex 4 {m}

OS:Space,
  {bff400c4-fbdd-4f04-ac7f-115b4620ec5d}, !- Handle
  Media_Center 1,                         !- Name
  {728a291c-4535-48c0-afba-44056476409f}, !- Space Type Name
  ,                                       !- Default Construction Set Name
  ,                                       !- Default Schedule Set Name
  -0,                                     !- Direction of Relative North {deg}
  0,                                      !- X Origin {m}
  61,                                     !- Y Origin {m}
  0,                                      !- Z Origin {m}
  {cd3beed0-14e3-4dd5-ad43-7cd1f88ad273}, !- Building Story Name
  {8f7c3044-2253-4379-a2d2-8ef52142d414}, !- Thermal Zone Name
  Yes,                                    !- Part of Total Floor Area
  ;                                       !- Design Specification Outdoor Air Object Name

OS:ThermostatSetpoint:DualSetpoint,
  {9855d649-8884-47ad-af73-c725af731f98}, !- Handle
  {1c771c6c-3e3f-4fed-846b-c48ef0e18ec7}, !- Name
  {248b64bb-0eb1-483f-87c2-45984f83102d}, !- Heating Setpoint Temperature Schedule Name
  {67368307-c5c4-4963-8ec0-d9cecb2f9747}; !- Cooling Setpoint Temperature Schedule Name

OS:Surface,
  {53e27ad6-1fb1-4d56-8106-139f9c210186}, !- Handle
  Corner_Class_1_Pod_1 - Wall 180:a,      !- Name
  Wall,                                   !- Surface Type
  ,                                       !- Construction Name
  {af787c19-d8db-44c1-b35b-1842c7727820}, !- Space Name
  Outdoors,                               !- Outside Boundary Condition
  ,                                       !- Outside Boundary Condition Object
  SunExposed,                             !- Sun Exposure
  WindExposed,                            !- Wind Exposure
  ,                                       !- View Factor to Ground
  ,                                       !- Number of Vertices
  0, 0, 4,                                !- X,Y,Z Vertex 1 {m}
  0, 0, 0,                                !- X,Y,Z Vertex 2 {m}
  11, 0, 0,                               !- X,Y,Z Vertex 3 {m}
  11, 0, 4;                               !- X,Y,Z Vertex 4 {m}

OS:Construction,
  {947e0e8d-bc5b-41b5-a704-f6c7c7fcda1a}, !- Handle
  Steel-Framed_R-13_Ext-wall,             !- Name
  {7bcf0004-9e51-46d1-bdec-b1e7b3963258}, !- Surface Rendering Name
  {927a402c-7ade-4125-98d4-fbcb55f19335}, !- Layer 1
  {42d9a74c-ce68-4c20-abea-2044dd9e4e61}, !- Layer 2
  {f828dfb4-6e40-4bfe-866c-7dfa0fe94236}, !- Layer 3
  {05e3a015-c146-472a-be91-5a6b572f6070}; !- Layer 4

OS:Material:NoMass,
  {42d9a74c-ce68-4c20-abea-2044dd9e4e61}, !- Handle
  MAT-SHEATH,                             !- Name
  Rough,                                  !- Roughness
  0.3626,                                 !- Thermal Resistance {m2-K/W}
  0.9,                                    !- Thermal Absorptance
  0.7,                                    !- Solar Absorptance
  0.7;                                    !- Visible Absorptance

OS:Material,
  {f828dfb4-6e40-4bfe-866c-7dfa0fe94236}, !- Handle
  Wall Insulation [1],                    !- Name
  MediumRough,                            !- Roughness
  0.0373,                                 !- Thickness {m}
  0.045,                                  !- Conductivity {W/m-K}
  265,                                    !- Density {kg/m3}
  836.8,                                  !- Specific Heat {J/kg-K}
  0.9,                                    !- Thermal Absorptance
  0.7,                                    !- Solar Absorptance
  0.7;                                    !- Visible Absorptance

OS:Material,
  {05e3a015-c146-472a-be91-5a6b572f6070}, !- Handle
  1/2IN Gypsum - adj,                     !- Name
  Smooth,                                 !- Roughness
  0.0127,                                 !- Thickness {m}
  0.16,                                   !- Conductivity {W/m-K}
  784.9,                                  !- Density {kg/m3}
  830,                                    !- Specific Heat {J/kg-K}