
OS:Version,
  {5f482a7f-d681-4ccf-a6f5-3ce9c8d0ee16}, !- Handle
  1.9.0;                                  !- Version Identifier

OS:AirConditioner:VariableRefrigerantFlow,
  {d3b0704b-08fe-4dd8-b990-574db682988a}, !- Handle
  VRF Air Conditioner,                    !- Name
  {01575e3b-f52a-4a41-925f-b9af7e86b41c}, !- Availability Schedule
  105480,                                 !- Rated Total Cooling Capacity {W}
  3.15,                                   !- Rated Cooling COP {W/W}
  -5,                                     !- Minimum Outdoor Temperature in Cooling Mode {C}
  43,                                     !- Maximum Outdoor Temperature in Cooling Mode {C}
  {16e86ad5-c9e5-4322-9ff4-ea740e2f025e}, !- Cooling Capacity Ratio Modifier Function of Low Temperature Curve
  {ef292a6d-233c-43ea-b9c7-8b10ed4b2d15}, !- Cooling Capacity Ratio Boundary Curve
  {f68af7bc-0141-40ab-9f3c-e5573733d1cb}, !- Cooling Capacity Ratio Modifier Function of High Temperature Curve
  {a3f34b61-0073-4391-b510-c0b81be23e45}, !- Cooling Energy Input Ratio Modifier Function of Low Temperature Curve
  {12e6bf6c-be96-4b7b-874e-697534b73624}, !- Cooling Energy Input Ratio Boundary Curve
  {abb03760-4805-4cb6-b574-85c6bb5933f6}, !- Cooling Energy Input Ratio Modifier Function of High Temperature Curve
  {425dfb08-2248-43c0-8d00-3213b6456230}, !- Cooling Energy Input Ratio Modifier Function of Low Part-Load Ratio Curve
  {a9609c8a-b1b0-4bb4-a39c-8b004e617cf0}, !- Cooling Energy Input Ratio Modifier Function of High Part-Load Ratio Curve
  {bff93df4-84e2-4869-83fa-e18697501ff8}, !- Cooling Combination Ratio Correction Factor Curve
  {25767801-3730-4499-84fa-7693964c0163}, !- Cooling Part-Load Fraction Correlation Curve
  118665,                                 !- Rated Total Heating Capacity {W}
  1,                                      !- Rated Total Heating Capacity Sizing Ratio {W/W}
  3.4,                                    !- Rated Heating COP {W/W}
  -20,                                    !- Minimum Outdoor Temperature in Heating Mode {C}
  30,                                     !- Maximum Outdoor Temperature in Heating Mode {C}
  {97336d53-a584-4eec-9595-87f129c7bd84}, !- Heating Capacity Ratio Modifier Function of Low Temperature Curve
  {b8ca32f8-0798-4873-9256-b949e5e870cb}, !- Heating Capacity Ratio Boundary Curve
  {158847c5-d8b6-4e79-a203-3181450cde13}, !- Heating Capacity Ratio Modifier Function of High Temperature Curve
  {29697520-6bea-4927-8510-67130a9092ef}, !- Heating Energy Input Ratio Modifier Function of Low Temperature Curve
  {7587ce2a-1347-448c-9e20-24ffedf0f478}, !- Heating Energy Input Ratio Boundary Curve
  {e4bf9bd7-a6a6-4685-8964-57c8cc6a9329}, !- Heating Energy Input Ratio Modifier Function of High Temperature Curve
  WetBulbTemperature,                     !- Heating Performance Curve Outdoor Temperature Type
  {61d1093c-2422-4904-b796-d9b8ed60dc72}, !- Heating Energy Input Ratio Modifier Function of Low Part-Load Ratio Curve
  {a68c66b0-91c2-45e8-89ec-f613ee5ecbb0}, !- Heating Energy Input Ratio Modifier Function of High Part-Load Ratio Curve
  {76f0c6b3-8447-4536-9f70-a500d5f42ff3}, !- Heating Combination Ratio Correction Factor Curve
  {42f19ed1-dc2e-4e43-81c6-9873d077e0e2}, !- Heating Part-Load Fraction Correlation Curve
  0.25,                                   !- Minimum Heat Pump Part-Load Ratio
  ,                                       !- Zone Name for Master Thermostat Location
  LoadPriority,                           !- Master Thermostat Priority Control Type
  ,                                       !- Thermostat Priority Schedule
  {71ce4e96-4033-47fa-b9be-a8f1f7d2abfb}, !- Zone Terminal Unit List
  No,                                     !- Heat Pump Waste Heat Recovery
  30,                                     !- Equivalent Piping Length used for Piping Correction Factor in Cooling Mode {m}
  10,                                     !- Vertical Height used for Piping Correction Factor {m}
  {e5f76700-6987-4670-8ac1-21f2de2845ed}, !- Piping Correction Factor for Length in Cooling Mode Curve
  -0.000386,                              !- Piping Correction Factor for Height in Cooling Mode Coefficient
  30,                                     !- Equivalent Piping Length used for Piping Correction Factor in Heating Mode {m}
  ,                                       !- Piping Correction Factor for Length in Heating Mode Curve
  0,                                      !- Piping Correction Factor for Height in Heating Mode Coefficient
  15,                                     !- Crankcase Heater Power per Compressor {W}
  3,                                      !- Number of Compressors
  0.33,                                   !- Ratio of Compressor Size to Total Compressor Capacity
  7,                                      !- Maximum Outdoor Dry-bulb Temperature for Crankcase Heater {C}
  Resistive,                              !- Defrost Strategy
  Timed,                                  !- Defrost Control
  ,                                       !- Defrost Energy Input Ratio Modifier Function of Temperature Curve
  0.058333,                               !- Defrost Time Period Fraction
  1e-07,                                  !- Resistive Defrost Heater Capacity {W}
  7,                                      !- Maximum Outdoor Dry-bulb Temperature for Defrost Operation {C}
  ,                                       !- Condenser Type
  ,                                       !- Condenser Inlet Node
  ,                                       !- Condenser Outlet Node
  autosize,                               !- Water Condenser Volume Flow Rate {m3/s}
  0.9,                                    !- Evaporative Condenser Effectiveness {dimensionless}
  autosize,                               !- Evaporative Condenser Air Flow Rate {m3/s}
  autosize,                               !- Evaporative Condenser Pump Rated Power Consumption {W}
  ,                                       !- Supply Water Storage Tank
  0,                                      !- Basin Heater Capacity {W/K}
  2,                                      !- Basin Heater Setpoint Temperature {C}
  ,                                       !- Basin Heater Operating Schedule
  Electricity,                            !- Fuel Type
  0,                                      !- Minimum Outdoor Temperature in Heat Recovery Mode {C}
  20,                                     !- Maximum Outdoor Temperature in Heat Recovery Mode {C}
  ,                                       !- Heat Recovery Cooling Capacity Modifier Curve
  0.5,                                    !- Initial Heat Recovery Cooling Capacity Fraction
  0.083,                                  !- Heat Recovery Cooling Capacity Time Constant {hr}
  ,                                       !- Heat Recovery Cooling Energy Modifier Curve
  1,                                      !- Initial Heat Recovery Cooling Energy Fraction
  0,                                      !- Heat Recovery Cooling Energy Time Constant {hr}
  ,                                       !- Heat Recovery Heating Capacity Modifier Curve
  0.5,                                    !- Initial Heat Recovery Heating Capacity Fraction
  0.083,                                  !- Heat Recovery Heating Capacity Time Constant {hr}
  ,                                       !- Heat Recovery Heating Energy Modifier Curve
  0.5,                                    !- Initial Heat Recovery Heating Energy Fraction
  0;                                      !- Heat Recovery Heating Energy Time Constant {hr}

OS:Schedule:Constant,
  {01575e3b-f52a-4a41-925f-b9af7e86b41c}, !- Handle
  Always On Discrete,                     !- Name
  {70ccb25c-8e06-471a-b0c0-96f142868f58}, !- Schedule Type Limits Name
  1;                                      !- Value

OS:ScheduleTypeLimits,
  {70ccb25c-8e06-471a-b0c0-96f142868f58}, !- Handle
  OnOff,                                  !- Name
  0,                                      !- Lower Limit Value {BasedOnField A4}
  1,                                      !- Upper Limit Value {BasedOnField A4}
  Discrete,                               !- Numeric Type
  Availability;                           !- Unit Type

OS:ModelObjectList,
  {71ce4e96-4033-47fa-b9be-a8f1f7d2abfb}, !- Handle
  Model Object List 1;                    !- Name

OS:Table:MultiVariableLookup,
  {16e86ad5-c9e5-4322-9ff4-ea740e2f025e}, !- Handle
  Table Multi Variable Lookup 5,          !- Name
  LinearInterpolationOfTable,             !- Interpolation Method
  ,                                       !- Number of Interpolation Points
  BiQuadratic,                            !- Curve Type
  ,                                       !- Table Data Format
  ,                                       !- External File Name
  ,                                       !- X1 Sort Order
  ,                                       !- X2 Sort Order
  1,                                      !- Normalization Reference
  13.9,                                   !- Minimum Value of X1 {BasedOnField A8}
  24.4,                                   !- Maximum Value of X1 {BasedOnField A8}
  -3.9,                                   !- Minimum Value of X2 {BasedOnField A9}
  50,                                     !- Maximum Value of X2 {BasedOnField A9}
  ,                                       !- Minimum Value of X3 {BasedOnField A10}
  ,                                       !- Maximum Value of X3 {BasedOnField A10}
  ,                                       !- Minimum Value of X4 {BasedOnField A11}
  ,                                       !- Maximum Value of X4 {BasedOnField A11}
  ,                                       !- Minimum Value of X5 {BasedOnField A12}
  ,                                       !- Maximum Value of X5 {BasedOnField A12}
  0.540277777777778,                      !- Minimum Table Output {BasedOnField A13}
  1.05805555555556,                       !- Maximum Table Output {BasedOnField A13}
  Temperature,                            !- Input Unit Type for X1
  Temperature,                            !- Input Unit Type for X2
  ,                                       !- Input Unit Type for X3
  ,                                       !- Input Unit Type for X4
  ,                                       !- Input Unit Type for X5
  Dimensionless,                          !- Output Unit Type
  2,                                      !- Number of Independent Variables
  13.9,                                   !- Data 1
  -3.9,                                   !- Data 2
  0.540277777777778,                      !- Data 3
  13.9,                                   !- Data 4
  -1.1,                                   !- Data 5
  0.540277777777778,                      !- Data 6
  13.9,                                   !- Data 7
  1.7,                                    !- Data 8
  0.540277777777778,                      !- Data 9
  13.9,                                   !- Data 10
  4.4,                                    !- Data 11
  0.540277777777778,                      !- Data 12
  13.9,                                   !- Data 13
  7.2,                                    !- Data 14
  0.540277777777778,                      !- Data 15
  13.9,                                   !- Data 16
  10,                                     !- Data 17
  0.540277777777778,                      !- Data 18
  13.9,                                   !- Data 19
  12.8,                                   !- Data 20
  0.540277777777778,                      !- Data 21
  13.9,                                   !- Data 22
  15.6,                                   !- Data 23
  0.540277777777778,                      !- Data 24
  13.9,                                   !- Data 25
  18.3,                                   !- Data 26
  0.540277777777778,                      !- Data 27
  13.9,                                   !- Data 28
  21.1,                                   !- Data 29
  0.540277777777778,                      !- Data 30
  13.9,                                   !- Data 31
  23.9,                                   !- Data 32
  0.540277777777778,                      !- Data 33
  13.9,                                   !- Data 34
  26.7,                                   !- Data 35
  0.540277777777778,                      !- Data 36
  13.9,                                   !- Data 37
  29.4,                                   !- Data 38
  0.540277777777778,                      !- Data 39
  13.9,                                   !- Data 40
  32.2,                                   !- Data 41
  0.540277777777778,                      !- Data 42
  13.9,                                   !- Data 43
  35,                                     !- Data 44
  0.540277777777778,                      !- Data 45
  13.9,                                   !- Data 46
  37.8,                                   !- Data 47
  0.540277777777778,                      !- Data 48
  13.9,                                   !- Data 49
  40.6,                                   !- Data 50
  0.540277777777778,                      !- Data 51
  13.9,                                   !- Data 52
  43.3,                                   !- Data 53
  0.540277777777778,                      !- Data 54
  13.9,                                   !- Data 55
  46.1,                                   !- Data 56
  0.540277777777778,                      !- Data 57
  13.9,                                   !- Data 58
  47.8,                                   !- Data 59
  0.540277777777778,                      !- Data 60
  13.9,                                   !- Data 61
  50,                                     !- Data 62
  0.540277777777778,                      !- Data 63
  16.1,                                   !- Data 64
  -3.9,                                   !- Data 65
  0.642777777777778,                      !- Data 66
  16.1,                                   !- Data 67
  -1.1,                                   !- Data 68
  0.642777777777778,                      !- Data 69
  16.1,                                   !- Data 70
  1.7,                                    !- Data 71
  0.642777777777778,                      !- Data 72
  16.1,                                   !- Data 73
  4.4,                                    !- Data 74
  0.642777777777778,                      !- Data 75
  16.1,                                   !- Data 76
  7.2,                                    !- Data 77
  0.642777777777778,                      !- Data 78
  16.1,                                   !- Data 79
  10,                                     !- Data 80
  0.642777777777778,                      !- Data 81
  16.1,                                   !- Data 82
  12.8,                                   !- Data 83
  0.642777777777778,                      !- Data 84
  16.1,                                   !- Data 85
  15.6,                                   !- Data 86
  0.642777777777778,                      !- Data 87
  16.1,                                   !- Data 88
  18.3,                                   !- Data 89
  0.642777777777778,                      !- Data 90
  16.1,                                   !- Data 91
  21.1,                                   !- Data 92
  0.642777777777778,                      !- Data 93
  16.1,                                   !- Data 94
  23.9,                                   !- Data 95
  0.642777777777778,                      !- Data 96
  16.1,                                   !- Data 97
  26.7,                                   !- Data 98
  0.642777777777778,                      !- Data 99
  16.1,                                   !- Data 100
  29.4,                                   !- Data 101
  0.642777777777778,                      !- Data 102
  16.1,                                   !- Data 103
  32.2,                                   !- Data 104
  0.642777777777778,                      !- Data 105
  16.1,                                   !- Data 106
  35,                                     !- Data 107
  0.642777777777778,                      !- Data 108
  16.1,                                   !- Data 109
  37.8,                                   !- Data 110
  0.642777777777778,                      !- Data 111
  16.1,                                   !- Data 112
  40.6,                                   !- Data 113
  0.642777777777778,                      !- Data 114
  16.1,                                   !- Data 115
  43.3,                                   !- Data 116
  0.642777777777778,                      !- Data 117
  16.1,                                   !- Data 118
  46.1,                                   !- Data 119
  0.642777777777778,                      !- Data 120
  16.1,                                   !- Data 121
  47.8,                                   !- Data 122
  0.642777777777778,                      !- Data 123
  16.1,                                   !- Data 124
  50,                                     !- Data 125
  0.567222222222222,                      !- Data 126
  17.8,                                   !- Data 127
  -3.9,                                   !- Data 128
  0.75,                                   !- Data 129
  17.8,                                   !- Data 130
  -1.1,                                   !- Data 131
  0.75,                                   !- Data 132
  17.8,                                   !- Data 133
  1.7,                                    !- Data 134
  0.75,                                   !- Data 135
  17.8,                                   !- Data 136
  4.4,                                    !- Data 137
  0.75,                                   !- Data 138
  17.8,                                   !- Data 139
  7.2,                                    !- Data 140
  0.75,                                   !- Data 141
  17.8,                                   !- Data 142
  10,                                     !- Data 143
  0.75,                                   !- Data 144
  17.8,                                   !- Data 145
  12.8,                                   !- Data 146
  0.75,                                   !- Data 147
  17.8,                                   !- Data 148
  15.6,                                   !- Data 149
  0.75,                                   !- Data 150
  17.8,                                   !- Data 151
  18.3,                                   !- Data 152
  0.75,                                   !- Data 153
  17.8,                                   !- Data 154
  21.1,                                   !- Data 155
  0.75,                                   !- Data 156
  17.8,                                   !- Data 157
  23.9,                                   !- Data 158
  0.75,                                   !- Data 159
  17.8,                                   !- Data 160
  26.7,                                   !- Data 161
  0.75,                                   !- Data 162
  17.8,                                   !- Data 163
  29.4,                                   !- Data 164
  0.75,                                   !- Data 165
  17.8,                                   !- Data 166
  32.2,                                   !- Data 167
  0.75,                                   !- Data 168
  17.8,                                   !- Data 169
  35,                                     !- Data 170
  0.75,                                   !- Data 171
  17.8,                                   !- Data 172
  37.8,                                   !- Data 173
  0.75,                                   !- Data 174
  17.8,                                   !- Data 175
  40.6,                                   !- Data 176
  0.75,                                   !- Data 177
  17.8,                                   !- Data 178
  43.3,                                   !- Data 179
  0.75,                                   !- Data 180
  17.8,                                   !- Data 181
  46.1,                                   !- Data 182
  0.75,                                   !- Data 183
  17.8,                                   !- Data 184
  47.8,                                   !- Data 185
  0.688055555555555,                      !- Data 186
  17.8,                                   !- Data 187
  50,                                     !- Data 188
  0.548333333333333,                      !- Data 189
  19.4,                                   !- Data 190
  -3.9,                                   !- Data 191
  0.799166666666667,                      !- Data 192
  19.4,                                   !- Data 193
  -1.1,                                   !- Data 194
  0.799166666666667,                      !- Data 195
  19.4,                                   !- Data 196
  1.7,                                    !- Data 197
  0.799166666666667,                      !- Data 198
  19.4,                                   !- Data 199
  4.4,                                    !- Data 200
  0.799166666666667,                      !- Data 201
  19.4,                                   !- Data 202
  7.2,                                    !- Data 203
  0.799166666666667,                      !- Data 204
  19.4,                                   !- Data 205
  10,                                     !- Data 206
  0.799166666666667,                      !- Data 207
  19.4,                                   !- Data 208
  12.8,                                   !- Data 209
  0.799166666666667,                      !- Data 210
  19.4,                                   !- Data 211
  15.6,                                   !- Data 212
  0.799166666666667,                      !- Data 213
  19.4,                                   !- Data 214
  18.3,                                   !- Data 215
  0.799166666666667,                      !- Data 216
  19.4,                                   !- Data 217
  21.1,                                   !- Data 218
  0.799166666666667,                      !- Data 219
  19.4,                                   !- Data 220
  23.9,                                   !- Data 221
  0.799166666666667,                      !- Data 222
  19.4,                                   !- Data 223
  26.7,                                   !- Data 224
  0.799166666666667,                      !- Data 225
  19.4,                                   !- Data 226
  29.4,                                   !- Data 227
  0.799166666666667,                      !- Data 228
  19.4,                                   !- Data 229
  32.2,                                   !- Data 230
  0.799166666666667,                      !- Data 231
  19.4,                                   !- Data 232
  35,                                     !- Data 233
  0.799166666666667,                      !- Data 234
  19.4,                                   !- Data 235
  37.8,                                   !- Data 236
  0.799166666666667,                      !- Data 237
  19.4,                                   !- Data 238
  40.6,                                   !- Data 239
  0.799166666666667,                      !- Data 240
  19.4,                                   !- Data 241
  43.3,                                   !- Data 242
  0.799166666666667,                      !- Data 243
  19.4,                                   !- Data 244
  46.1,                                   !- Data 245
  0.799166666666667,                      !- Data 246
  19.4,                                   !- Data 247
  47.8,                                   !- Data 248
  0.701944444444444,                      !- Data 249
  19.4,                                   !- Data 250
  50,                                     !- Data 251
  0.560833333333333,                      !- Data 252
  21.1,                                   !- Data 253
  -3.9,                                   !- Data 254
  0.852777777777778,                      !- Data 255
  21.1,                                   !- Data 256
  -1.1,                                   !- Data 257
  0.852777777777778,                      !- Data 258
  21.1,                                   !- Data 259
  1.7,                                    !- Data 260
  0.852777777777778,                      !- Data 261
  21.1,                                   !- Data 262
  4.4,                                    !- Data 263
  0.852777777777778,                      !- Data 264
  21.1,                                   !- Data 265
  7.2,                                    !- Data 266
  0.852777777777778,                      !- Data 267
  21.1,                                   !- Data 268
  10,                                     !- Data 269
  0.852777777777778,                      !- Data 270
  21.1,                                   !- Data 271
  12.8,                                   !- Data 272
  0.852777777777778,                      !- Data 273
  21.1,                                   !- Data 274
  15.6,                                   !- Data 275
  0.852777777777778,                      !- Data 276
  21.1,                                   !- Data 277
  18.3,                                   !- Data 278
  0.852777777777778,                      !- Data 279
  21.1,                                   !- Data 280
  21.1,                                   !- Data 281
  0.852777777777778,                      !- Data 282
  21.1,                                   !- Data 283
  23.9,                                   !- Data 284
  0.852777777777778,                      !- Data 285
  21.1,                                   !- Data 286
  26.7,                                   !- Data 287
  0.852777777777778,                      !- Data 288
  21.1,                                   !- Data 289
  29.4,                                   !- Data 290
  0.852777777777778,                      !- Data 291
  21.1,                                   !- Data 292
  32.2,                                   !- Data 293
  0.852777777777778,                      !- Data 294
  21.1,                                   !- Data 295
  35,                                     !- Data 296
  0.852777777777778,                      !- Data 297
  21.1,                                   !- Data 298
  37.8,                                   !- Data 299
  0.852777777777778,                      !- Data 300
  21.1,                                   !- Data 301
  40.6,                                   !- Data 302
  0.852777777777778,                      !- Data 303
  21.1,                                   !- Data 304
  43.3,                                   !- Data 305
  0.852777777777778,                      !- Data 306
  21.1,                                   !- Data 307
  46.1,                                   !- Data 308
  0.799166666666667,                      !- Data 309
  21.1,                                   !- Data 310
  47.8,                                   !- Data 311
  0.695833333333333,                      !- Data 312
  21.1,                                   !- Data 313
  50,                                     !- Data 314
  0.557222222222222,                      !- Data 315
  22.8,                                   !- Data 316
  -3.9,                                   !- Data 317
  0.955277777777778,                      !- Data 318
  22.8,                                   !- Data 319
  -1.1,                                   !- Data 320
  0.955277777777778,                      !- Data 321
  22.8,                                   !- Data 322
  1.7,                                    !- Data 323
  0.955277777777778,                      !- Data 324
  22.8,                                   !- Data 325
  4.4,                                    !- Data 326
  0.955277777777778,                      !- Data 327
  22.8,                                   !- Data 328
  7.2,                                    !- Data 329
  0.955277777777778,                      !- Data 330
  22.8,                                   !- Data 331
  10,                                     !- Data 332
  0.955277777777778,                      !- Data 333
  22.8,                                   !- Data 334
  12.8,                                   !- Data 335
  0.955277777777778,                      !- Data 336
  22.8,                                   !- Data 337
  15.6,                                   !- Data 338
  0.955277777777778,                      !- Data 339
  22.8,                                   !- Data 340
  18.3,                                   !- Data 341
  0.955277777777778,                      !- Data 342
  22.8,                                   !- Data 343
  21.1,                                   !- Data 344
  0.955277777777778,                      !- Data 345
  22.8,                                   !- Data 346
  23.9,                                   !- Data 347
  0.955277777777778,                      !- Data 348
  22.8,                                   !- Data 349
  26.7,                                   !- Data 350
  0.955277777777778,                      !- Data 351
  22.8,                                   !- Data 352
  29.4,                                   !- Data 353
  0.955277777777778,                      !- Data 354
  22.8,                                   !- Data 355
  32.2,                                   !- Data 356
  0.955277777777778,                      !- Data 357
  22.8,                                   !- Data 358
  35,                                     !- Data 359
  0.955277777777778,                      !- Data 360
  22.8,                                   !- Data 361
  37.8,                                   !- Data 362