
OS:Version,
  {be5a5540-76a5-4824-b8dd-bdd97c8506c2}, !- Handle
  2.8.0;                                  !- Version Identifier

