
OS:Version,
  {a3f37894-a2e8-4fc5-96dd-da0517994aa3}, !- Handle
  2.8.0;                                  !- Version Identifier

