
OS:Version,
  {9965725f-a307-4bc1-adad-9a58fbb37db5}, !- Handle
  2.8.0;                                  !- Version Identifier

