
OS:Version,
  {ed67abba-58e9-4e05-a65a-9da6221c6405}, !- Handle
  2.8.0;                                  !- Version Identifier

OS:SpaceType,
  {d77d7ad6-6946-4721-b69d-ff458d752a6b}, !- Handle
  LargeHotel Banquet,                     !- Name
  ,                                       !- Default Construction Set Name
  ,                                       !- Default Schedule Set Name
  {98cf8b92-2bf7-49bc-9a58-39f8495761a5}, !- Group Rendering Name
  ,                                       !- Design Specification Outdoor Air Object Name
  ,                                       !- Standards Template
  LargeHotel,                             !- Standards Building Type
  Banquet;                                !- Standards Space Type

OS:Rendering:Color,
  {98cf8b92-2bf7-49bc-9a58-39f8495761a5}, !- Handle
  LargeHotel Banquet,                     !- Name
  230,                                    !- Rendering Red Value
  196,                                    !- Rendering Green Value
  120;                                    !- Rendering Blue Value

OS:SpaceType,
  {56257e65-51ef-4509-9b68-aef42cee4301}, !- Handle
  LargeHotel Cafe,                        !- Name
  ,                                       !- Default Construction Set Name
  ,                                       !- Default Schedule Set Name
  {eea8c41e-d45c-46f7-aabf-9cb5823e2eaa}, !- Group Rendering Name
  ,                                       !- Design Specification Outdoor Air Object Name
  ,                                       !- Standards Template
  LargeHotel,                             !- Standards Building Type
  Cafe;                                   !- Standards Space Type

OS:Rendering:Color,
  {eea8c41e-d45c-46f7-aabf-9cb5823e2eaa}, !- Handle
  LargeHotel Cafe,                        !- Name
  31,                                     !- Rendering Red Value
  169,                                    !- Rendering Green Value
  34;                                     !- Rendering Blue Value

OS:SpaceType,
  {ded545b6-ecbd-4ae1-80b0-b2122481d725}, !- Handle
  LargeHotel Corridor,                    !- Name
  ,                                       !- Default Construction Set Name
  ,                                       !- Default Schedule Set Name
  {bf501d6e-6b84-400a-a4cd-101dab6d0f8d}, !- Group Rendering Name
  ,                                       !- Design Specification Outdoor Air Object Name
  ,                                       !- Standards Template
  LargeHotel,                             !- Standards Building Type
  Corridor;                               !- Standards Space Type

OS:Rendering:Color,
  {bf501d6e-6b84-400a-a4cd-101dab6d0f8d}, !- Handle
  LargeHotel Corridor,                    !- Name
  169,                                    !- Rendering Red Value
  31,                                     !- Rendering Green Value
  31;                                     !- Rendering Blue Value

OS:SpaceType,
  {97d3c80e-1223-43c4-aa60-02e3333389d7}, !- Handle
  LargeHotel GuestRoom,                   !- Name
  ,                                       !- Default Construction Set Name
  ,                                       !- Default Schedule Set Name
  {a6fcabab-94cb-4108-ab01-a7d4a2e14deb}, !- Group Rendering Name
  ,                                       !- Design Specification Outdoor Air Object Name
  ,                                       !- Standards Template
  LargeHotel,                             !- Standards Building Type
  GuestRoom;                              !- Standards Space Type

OS:Rendering:Color,
  {a6fcabab-94cb-4108-ab01-a7d4a2e14deb}, !- Handle
  LargeHotel GuestRoom,                   !- Name
  78,                                     !- Rendering Red Value
  167,                                    !- Rendering Green Value
  222;                                    !- Rendering Blue Value

OS:SpaceType,
  {c8dc56e8-1e79-43a1-8dea-5a4930f4721c}, !- Handle
  LargeHotel Kitchen,                     !- Name
  ,                                       !- Default Construction Set Name
  ,                                       !- Default Schedule Set Name
  {b6656557-08a1-441b-9d80-af19500f53f6}, !- Group Rendering Name
  ,                                       !- Design Specification Outdoor Air Object Name
  ,                                       !- Standards Template
  LargeHotel,                             !- Standards Building Type
  Kitchen;                                !- Standards Space Type

OS:Rendering:Color,
  {b6656557-08a1-441b-9d80-af19500f53f6}, !- Handle
  LargeHotel Kitchen,                     !- Name
  78,                                     !- Rendering Red Value
  222,                                    !- Rendering Green Value
  133;                                    !- Rendering Blue Value

OS:SpaceType,
  {7e76df35-4fb3-4a1f-b801-12ce3fc012d0}, !- Handle
  LargeHotel Laundry,                     !- Name
  ,                                       !- Default Construction Set Name
  ,                                       !- Default Schedule Set Name
  {7276e9fa-0c3d-4d2e-927f-feeec0a394d4}, !- Group Rendering Name
  ,                                       !- Design Specification Outdoor Air Object Name
  ,                                       !- Standards Template
  LargeHotel,                             !- Standards Building Type
  Laundry;                                !- Standards Space Type

OS:Rendering:Color,
  {7276e9fa-0c3d-4d2e-927f-feeec0a394d4}, !- Handle
  LargeHotel Laundry,                     !- Name
  120,                                    !- Rendering Red Value
  149,                                    !- Rendering Green Value
  230;                                    !- Rendering Blue Value

OS:SpaceType,
  {a30075b8-2ba5-4fe0-abf4-5754a695b22a}, !- Handle
  LargeHotel Lobby,                       !- Name
  ,                                       !- Default Construction Set Name
  ,                                       !- Default Schedule Set Name
  {5cbb6e73-1ca5-4d37-8826-05e9294b2d70}, !- Group Rendering Name
  ,                                       !- Design Specification Outdoor Air Object Name
  ,                                       !- Standards Template
  LargeHotel,                             !- Standards Building Type
  Lobby;                                  !- Standards Space Type

OS:Rendering:Color,
  {5cbb6e73-1ca5-4d37-8826-05e9294b2d70}, !- Handle
  LargeHotel Lobby,                       !- Name
  230,                                    !- Rendering Red Value
  157,                                    !- Rendering Green Value
  120;                                    !- Rendering Blue Value

OS:SpaceType,
  {f1265b95-b958-4a39-a2b3-3ad35f0f9816}, !- Handle
  LargeHotel Mechanical,                  !- Name
  ,                                       !- Default Construction Set Name
  ,                                       !- Default Schedule Set Name
  {f0bfa01d-ebe2-41c6-9269-c22c8cd211c6}, !- Group Rendering Name
  ,                                       !- Design Specification Outdoor Air Object Name
  ,                                       !- Standards Template
  LargeHotel,                             !- Standards Building Type
  Mechanical;                             !- Standards Space Type

OS:Rendering:Color,
  {f0bfa01d-ebe2-41c6-9269-c22c8cd211c6}, !- Handle
  LargeHotel Mechanical,                  !- Name
  41,                                     !- Rendering Red Value
  31,                                     !- Rendering Green Value
  169;                                    !- Rendering Blue Value

OS:SpaceType,
  {be650817-4db4-4309-a164-bc3eaa2e01f5}, !- Handle
  LargeHotel Retail,                      !- Name
  ,                                       !- Default Construction Set Name
  ,                                       !- Default Schedule Set Name
  {357aad55-8d40-4df0-8ae7-f7eccb7a9066}, !- Group Rendering Name
  ,                                       !- Design Specification Outdoor Air Object Name
  ,                                       !- Standards Template
  LargeHotel,                             !- Standards Building Type
  Retail;                                 !- Standards Space Type

OS:Rendering:Color,
  {357aad55-8d40-4df0-8ae7-f7eccb7a9066}, !- Handle
  LargeHotel Retail,                      !- Name
  171,                                    !- Rendering Red Value
  222,                                    !- Rendering Green Value
  78;                                     !- Rendering Blue Value

OS:SpaceType,
  {57ee4b39-109d-4fcc-8591-51a4cf2048f9}, !- Handle
  LargeHotel Storage,                     !- Name
  ,                                       !- Default Construction Set Name
  ,                                       !- Default Schedule Set Name
  {39a641ce-325e-4acb-957e-21ca9ff09c0b}, !- Group Rendering Name
  ,                                       !- Design Specification Outdoor Air Object Name
  ,                                       !- Standards Template
  LargeHotel,                             !- Standards Building Type
  Storage;                                !- Standards Space Type

OS:Rendering:Color,
  {39a641ce-325e-4acb-957e-21ca9ff09c0b}, !- Handle
  LargeHotel Storage,                     !- Name
  120,                                    !- Rendering Red Value
  149,                                    !- Rendering Green Value
  230;                                    !- Rendering Blue Value

OS:SpaceType,
  {354ff396-6b47-4b86-8a0c-44ac46217b63}, !- Handle
  FullServiceRestaurant Dining,           !- Name
  ,                                       !- Default Construction Set Name
  ,                                       !- Default Schedule Set Name
  {bb6c4111-4c6f-448b-b76d-5c1a67e8574d}, !- Group Rendering Name
  ,                                       !- Design Specification Outdoor Air Object Name
  ,                                       !- Standards Template
  FullServiceRestaurant,                  !- Standards Building Type
  Dining;                                 !- Standards Space Type

OS:Rendering:Color,
  {bb6c4111-4c6f-448b-b76d-5c1a67e8574d}, !- Handle
  FullServiceRestaurant Dining,           !- Name
  31,                                     !- Rendering Red Value
  169,                                    !- Rendering Green Value
  34;                                     !- Rendering Blue Value

OS:SpaceType,
  {4e389d54-115d-4c84-841d-5721f77b5bd4}, !- Handle
  FullServiceRestaurant Kitchen,          !- Name
  ,                                       !- Default Construction Set Name
  ,                                       !- Default Schedule Set Name
  {9c55f3be-800d-4288-a598-6c1373c3a9df}, !- Group Rendering Name
  ,                                       !- Design Specification Outdoor Air Object Name
  ,                                       !- Standards Template
  FullServiceRestaurant,                  !- Standards Building Type
  Kitchen;                                !- Standards Space Type

OS:Rendering:Color,
  {9c55f3be-800d-4288-a598-6c1373c3a9df}, !- Handle
  FullServiceRestaurant Kitchen,          !- Name
  78,                                     !- Rendering Red Value
  222,                                    !- Rendering Green Value
  133;                                    !- Rendering Blue Value

OS:Building,
  {c220ccbd-0322-42d1-9928-4085bad21deb}, !- Handle
  90.1-2004|LargeHotel|FullServiceRestaurant, !- Name
  ,                                       !- Building Sector Type
  ,                                       !- North Axis {deg}
  ,                                       !- Nominal Floor to Floor Height {m}
  ,                                       !- Space Type Name
  ,                                       !- Default Construction Set Name
  ;                                       !- Default Schedule Set Name

OS:Site,
  {0e303f6f-198e-47b8-8b64-e5001c21da7a}, !- Handle
  Site 1,                                 !- Name
  ,                                       !- Latitude {deg}
  ,                                       !- Longitude {deg}
  ,                                       !- Time Zone {hr}
  ,                                       !- Elevation {m}
  ;                                       !- Terrain

OS:BuildingStory,
  {4669b269-f84b-4c82-a32c-273aa673ec01}, !- Handle
  Story B1,                               !- Name
  -3.048,                                 !- Nominal Z Coordinate {m}
  3.048,                                  !- Nominal Floor to Floor Height {m}
  ,                                       !- Default Construction Set Name
  ,                                       !- Default Schedule Set Name
  ;                                       !- Group Rendering Name

OS:Space,
  {b03309e9-1f33-43f4-bb6b-7c7e9b44b69e}, !- Handle
  LargeHotel Cafe A end_a - Story B1,     !- Name
  {56257e65-51ef-4509-9b68-aef42cee4301}, !- Space Type Name
  ,                                       !- Default Construction Set Name
  ,                                       !- Default Schedule Set Name
  -0,                                     !- Direction of Relative North {deg}
  -20.3992205733454,                      !- X Origin {m}
  -9.48800956899788,                      !- Y Origin {m}
  -3.048,                                 !- Z Origin {m}
  {4669b269-f84b-4c82-a32c-273aa673ec01}, !- Building Story Name
  {4e000442-eb15-499b-8123-60e4d4d471a9}; !- Thermal Zone Name

OS:Surface,
  {9e0a8afb-723d-44e6-baa7-f3416cfd35a7}, !- Handle
  Surface 1,                              !- Name
  Floor,                                  !- Surface Type
  ,                                       !- Construction Name
  {b03309e9-1f33-43f4-bb6b-7c7e9b44b69e}, !- Space Name
  Ground,                                 !- Outside Boundary Condition
  ,                                       !- Outside Boundary Condition Object
  NoSun,                                  !- Sun Exposure
  NoWind,                                 !- Wind Exposure
  ,                                       !- View Factor to Ground
  ,                                       !- Number of Vertices
  4.61852778244065e-14, 0, 0,             !- X,Y,Z Vertex 1 {m}
  4.61852778244065e-14, 4.572, 0,         !- X,Y,Z Vertex 2 {m}
  4.57200000000005, 4.572, 0,             !- X,Y,Z Vertex 3 {m}
  4.57200000000005, 0, 0;                 !- X,Y,Z Vertex 4 {m}

OS:Surface,
  {7d5e79bc-5236-412a-9ae6-22a91aa73404}, !- Handle
  Surface 2,                              !- Name
  Wall,                                   !- Surface Type
  ,                                       !- Construction Name
  {b03309e9-1f33-43f4-bb6b-7c7e9b44b69e}, !- Space Name
  Ground,                                 !- Outside Boundary Condition
  ,                                       !- Outside Boundary Condition Object
  NoSun,                                  !- Sun Exposure
  NoWind,                                 !- Wind Exposure
  ,                                       !- View Factor to Ground
  ,                                       !- Number of Vertices
  4.61852778244065e-14, 4.572, 3.048,     !- X,Y,Z Vertex 1 {m}
  4.61852778244065e-14, 4.572, 0,         !- X,Y,Z Vertex 2 {m}
  4.61852778244065e-14, 0, 0,             !- X,Y,Z Vertex 3 {m}
  4.61852778244065e-14, 0, 3.048;         !- X,Y,Z Vertex 4 {m}

OS:Surface,
  {478cd3e2-fb17-4106-b695-c8054e01abee}, !- Handle
  Surface 3,                              !- Name
  Wall,                                   !- Surface Type
  ,                                       !- Construction Name
  {b03309e9-1f33-43f4-bb6b-7c7e9b44b69e}, !- Space Name
  Surface,                                !- Outside Boundary Condition
  {3f59916f-2212-469d-9aaf-d47995659b2d}, !- Outside Boundary Condition Object
  NoSun,                                  !- Sun Exposure
  NoWind,                                 !- Wind Exposure
  ,                                       !- View Factor to Ground
  ,                                       !- Number of Vertices
  4.57200000000005, 4.572, 3.048,         !- X,Y,Z Vertex 1 {m}
  4.57200000000005, 4.572, 0,             !- X,Y,Z Vertex 2 {m}
  4.61852778244065e-14, 4.572, 0,         !- X,Y,Z Vertex 3 {m}
  4.61852778244065e-14, 4.572, 3.048;     !- X,Y,Z Vertex 4 {m}

OS:Surface,
  {063fec6f-d44d-4f1c-90ce-5a89fb5e0f36}, !- Handle
  Surface 4,                              !- Name
  Wall,                                   !- Surface Type
  ,                                       !- Construction Name
  {b03309e9-1f33-43f4-bb6b-7c7e9b44b69e}, !- Space Name
  Surface,                                !- Outside Boundary Condition
  {d7f2093d-f39c-4d96-9bc8-ffb72191f249}, !- Outside Boundary Condition Object
  NoSun,                                  !- Sun Exposure
  NoWind,                                 !- Wind Exposure
  ,                                       !- View Factor to Ground
  ,                                       !- Number of Vertices
  4.57200000000005, 0, 3.048,             !- X,Y,Z Vertex 1 {m}
  4.57200000000005, 0, 0,                 !- X,Y,Z Vertex 2 {m}
  4.57200000000005, 4.572, 0,             !- X,Y,Z Vertex 3 {m}
  4.57200000000005, 4.572, 3.048;         !- X,Y,Z Vertex 4 {m}

OS:Surface,
  {2e9d4cdf-18fb-45b4-981f-f66a6305cd46}, !- Handle
  Surface 5,                              !- Name
  Wall,                                   !- Surface Type
  ,                                       !- Construction Name
  {b03309e9-1f33-43f4-bb6b-7c7e9b44b69e}, !- Space Name
  Ground,                                 !- Outside Boundary Condition
  ,                                       !- Outside Boundary Condition Object
  NoSun,                                  !- Sun Exposure
  NoWind,                                 !- Wind Exposure
  ,                                       !- View Factor to Ground
  ,                                       !- Number of Vertices
  4.61852778244065e-14, 0, 3.048,         !- X,Y,Z Vertex 1 {m}
  4.61852778244065e-14, 0, 0,             !- X,Y,Z Vertex 2 {m}
  4.57200000000005, 0, 0,                 !- X,Y,Z Vertex 3 {m}
  4.57200000000005, 0, 3.048;             !- X,Y,Z Vertex 4 {m}

OS:Surface,
  {6c53662f-79e8-43fe-a279-365c28afe34b}, !- Handle
  Surface 6,                              !- Name
  RoofCeiling,                            !- Surface Type
  ,                                       !- Construction Name
  {b03309e9-1f33-43f4-bb6b-7c7e9b44b69e}, !- Space Name
  Surface,                                !- Outside Boundary Condition
  {ee5297a1-485c-4165-8752-ababeed9c4b5}, !- Outside Boundary Condition Object
  NoSun,                                  !- Sun Exposure
  NoWind,                                 !- Wind Exposure
  ,                                       !- View Factor to Ground
  ,                                       !- Number of Vertices
  4.57200000000005, 0, 3.048,             !- X,Y,Z Vertex 1 {m}
  4.57200000000005, 4.572, 3.048,         !- X,Y,Z Vertex 2 {m}
  4.61852778244065e-14, 4.572, 3.048,     !- X,Y,Z Vertex 3 {m}
  4.61852778244065e-14, 0, 3.048;         !- X,Y,Z Vertex 4 {m}

OS:ThermalZone,
  {4e000442-eb15-499b-8123-60e4d4d471a9}, !- Handle
  Zone LargeHotel Cafe A end_a - Story B1, !- Name
  1,                                      !- Multiplier
  ,                                       !- Ceiling Height {m}
  ,                                       !- Volume {m3}
  ,                                       !- Floor Area {m2}
  ,                                       !- Zone Inside Convection Algorithm
  ,                                       !- Zone Outside Convection Algorithm
  ,                                       !- Zone Conditioning Equipment List Name
  {4c1a6551-59d6-4aaf-99d5-58fa572d5bca}, !- Zone Air Inlet Port List
  {2ed40415-e59b-4273-a03e-74b52d02cb50}, !- Zone Air Exhaust Port List
  {d89fa387-232b-441a-9b88-c5530238d956}, !- Zone Air Node Name
  {7cc61c75-f87c-4b2e-a7c7-68443ef843b1}, !- Zone Return Air Port List
  ,                                       !- Primary Daylighting Control Name
  ,                                       !- Fraction of Zone Controlled by Primary Daylighting Control
  ,                                       !- Secondary Daylighting Control Name
  ,                                       !- Fraction of Zone Controlled by Secondary Daylighting Control
  ,                                       !- Illuminance Map Name
  ,                                       !- Group Rendering Name
  ,                                       !- Thermostat Name
  No;                                     !- Use Ideal Air Loads

OS:Node,
  {e98b9f92-cac5-4ecc-bf7e-ab6427268795}, !- Handle
  Node 1,                                 !- Name
  {d89fa387-232b-441a-9b88-c5530238d956}, !- Inlet Port
  ;                                       !- Outlet Port

OS:Connection,
  {d89fa387-232b-441a-9b88-c5530238d956}, !- Handle
  {a5867304-ef68-4ca5-9312-414bc6140f6d}, !- Name
  {4e000442-eb15-499b-8123-60e4d4d471a9}, !- Source Object
  11,                                     !- Outlet Port
  {e98b9f92-cac5-4ecc-bf7e-ab6427268795}, !- Target Object
  2;                                      !- Inlet Port

OS:PortList,
  {4c1a6551-59d6-4aaf-99d5-58fa572d5bca}, !- Handle
  {ed84ee6d-5dac-4812-8038-b037a1c57a0c}, !- Name
  {4e000442-eb15-499b-8123-60e4d4d471a9}; !- HVAC Component

OS:PortList,
  {2ed40415-e59b-4273-a03e-74b52d02cb50}, !- Handle
  {81837cb6-6aca-4dd7-a188-688e7debfc01}, !- Name
  {4e000442-eb15-499b-8123-60e4d4d471a9}; !- HVAC Component

OS:PortList,
  {7cc61c75-f87c-4b2e-a7c7-68443ef843b1}, !- Handle
  {ddea9803-eb74-4a69-bafd-a04a76db6120}, !- Name
  {4e000442-eb15-499b-8123-60e4d4d471a9}; !- HVAC Component

OS:Sizing:Zone,
  {32e839a7-1e8b-43eb-898d-2bf52e078d5b}, !- Handle
  {4e000442-eb15-499b-8123-60e4d4d471a9}, !- Zone or ZoneList Name
  SupplyAirTemperature,                   !- Zone Cooling Design Supply Air Temperature Input Method
  14,                                     !- Zone Cooling Design Supply Air Temperature {C}
  11.11,                                  !- Zone Cooling Design Supply Air Temperature Difference {deltaC}
  SupplyAirTemperature,                   !- Zone Heating Design Supply Air Temperature Input Method
  40,                                     !- Zone Heating Design Supply Air Temperature {C}
  11.11,                                  !- Zone Heating Design Supply Air Temperature Difference {deltaC}
  0.0085,                                 !- Zone Cooling Design Supply Air Humidity Ratio {kg-H2O/kg-air}
  0.008,                                  !- Zone Heating Design Supply Air Humidity Ratio {kg-H2O/kg-air}
  ,                                       !- Zone Heating Sizing Factor
  ,                                       !- Zone Cooling Sizing Factor
  DesignDay,                              !- Cooling Design Air Flow Method
  ,                                       !- Cooling Design Air Flow Rate {m3/s}
  ,                                       !- Cooling Minimum Air Flow per Zone Floor Area {m3/s-m2}
  ,                                       !- Cooling Minimum Air Flow {m3/s}
  ,                                       !- Cooling Minimum Air Flow Fraction
  DesignDay,                              !- Heating Design Air Flow Method
  ,                                       !- Heating Design Air Flow Rate {m3/s}
  ,                                       !- Heating Maximum Air Flow per Zone Floor Area {m3/s-m2}
  ,                                       !- Heating Maximum Air Flow {m3/s}
  ,                                       !- Heating Maximum Air Flow Fraction
  ,                                       !- Design Zone Air Distribution Effectiveness in Cooling Mode
  ,                                       !- Design Zone Air Distribution Effectiveness in Heating Mode
  No,                                     !- Account for Dedicated Outdoor Air System
  NeutralSupplyAir,                       !- Dedicated Outdoor Air System Control Strategy
  autosize,                               !- Dedicated Outdoor Air Low Setpoint Temperature for Design {C}
  autosize;                               !- Dedicated Outdoor Air High Setpoint Temperature for Design {C}

OS:ZoneHVAC:EquipmentList,
  {d1cbb120-9fcf-4c00-b6dd-1b6c8f0d1969}, !- Handle
  Zone HVAC Equipment List 1,             !- Name
  {4e000442-eb15-499b-8123-60e4d4d471a9}; !- Thermal Zone

OS:Space,
  {9632f7fe-1c6f-4855-b1ba-eab7b319afed}, !- Handle
  LargeHotel Cafe B end_a - Story B1,     !- Name
  {56257e65-51ef-4509-9b68-aef42cee4301}, !- Space Type Name
  ,                                       !- Default Construction Set Name
  ,                                       !- Default Schedule Set Name
  -0,                                     !- Direction of Relative North {deg}
  -20.3992205733454,                      !- X Origin {m}
  -4.91600956899788,                      !- Y Origin {m}
  -3.048,                                 !- Z Origin {m}
  {4669b269-f84b-4c82-a32c-273aa673ec01}, !- Building Story Name
  {3f85b246-28bb-4fad-bab0-0f1dda9d3a14}; !- Thermal Zone Name

OS:Surface,
  {da2e0fb9-7e30-4aa3-993f-69341f2bc137}, !- Handle
  Surface 7,                              !- Name
  Floor,                                  !- Surface Type
  ,                                       !- Construction Name
  {9632f7fe-1c6f-4855-b1ba-eab7b319afed}, !- Space Name
  Ground,                                 !- Outside Boundary Condition
  ,                                       !- Outside Boundary Condition Object
  NoSun,                                  !- Sun Exposure
  NoWind,                                 !- Wind Exposure
  ,                                       !- View Factor to Ground
  ,                                       !- Number of Vertices
  4.61852778244065e-14, 0, 0,             !- X,Y,Z Vertex 1 {m}
  4.61852778244065e-14, 9.83201913799576, 0, !- X,Y,Z Vertex 2 {m}
  4.57200000000005, 9.83201913799576, 0,  !- X,Y,Z Vertex 3 {m}
  4.57200000000005, 0, 0;                 !- X,Y,Z Vertex 4 {m}

OS:Surface,
  {e1387c4c-5935-453f-bc9e-2f5ec9d25637}, !- Handle
  Surface 8,                              !- Name
  Wall,                                   !- Surface Type
  ,                                       !- Construction Name
  {9632f7fe-1c6f-4855-b1ba-eab7b319afed}, !- Space Name
  Ground,                                 !- Outside Boundary Condition
  ,                                       !- Outside Boundary Condition Object
  NoSun,                                  !- Sun Exposure
  NoWind,                                 !- Wind Exposure
  ,                                       !- View Factor to Ground
  ,                                       !- Number of Vertices
  4.61852778244065e-14, 9.83201913799576, 3.048, !- X,Y,Z Vertex 1 {m}
  4.61852778244065e-14, 9.83201913799576, 0, !- X,Y,Z Vertex 2 {m}
  4.61852778244065e-14, 0, 0,             !- X,Y,Z Vertex 3 {m}
  4.61852778244065e-14, 0, 3.048;         !- X,Y,Z Vertex 4 {m}

OS:Surface,
  {04afb4c5-9392-43a8-8fdc-d823a95dddd0}, !- Handle
  Surface 9,                              !- Name
  Wall,                                   !- Surface Type
  ,                                       !- Construction Name
  {9632f7fe-1c6f-4855-b1ba-eab7b319afed}, !- Space Name
  Surface,                                !- Outside Boundary Condition
  {0c120d47-59e7-4552-9793-2c4ed8ab8012}, !- Outside Boundary Condition Object
  NoSun,                                  !- Sun Exposure
  NoWind,                                 !- Wind Exposure
  ,                                       !- View Factor to Ground
  ,                                       !- Number of Vertices
  4.57200000000005, 9.83201913799576, 3.048, !- X,Y,Z Vertex 1 {m}
  4.57200000000005, 9.83201913799576, 0,  !- X,Y,Z Vertex 2 {m}
  4.61852778244065e-14, 9.83201913799576, 0, !- X,Y,Z Vertex 3 {m}
  4.61852778244065e-14, 9.83201913799576, 3.048; !- X,Y,Z Vertex 4 {m}

OS:Surface,
  {340dc979-47e4-4c5d-936c-15a99a728b59}, !- Handle
  Surface 10,                             !- Name
  Wall,                                   !- Surface Type
  ,                                       !- Construction Name
  {9632f7fe-1c6f-4855-b1ba-eab7b319afed}, !- Space Name
  Surface,                                !- Outside Boundary Condition
  {aa7dc345-7c92-433f-9b6f-3300318d0f7d}, !- Outside Boundary Condition Object
  NoSun,                                  !- Sun Exposure
  NoWind,                                 !- Wind Exposure
  ,                                       !- View Factor to Ground
  ,                                       !- Number of Vertices
  4.57200000000005, 0, 3.048,             !- X,Y,Z Vertex 1 {m}
  4.57200000000005, 0, 0,                 !- X,Y,Z Vertex 2 {m}
  4.57200000000005, 9.83201913799576, 0,  !- X,Y,Z Vertex 3 {m}
  4.57200000000005, 9.83201913799576, 3.048; !- X,Y,Z Vertex 4 {m}

OS:Surface,
  {3f59916f-2212-469d-9aaf-d47995659b2d}, !- Handle
  Surface 11,                             !- Name
  Wall,                                   !- Surface Type
  ,                                       !- Construction Name
  {9632f7fe-1c6f-4855-b1ba-eab7b319afed}, !- Space Name
  Surface,                                !- Outside Boundary Condition
  {478cd3e2-fb17-4106-b695-c8054e01abee}, !- Outside Boundary Condition Object
  NoSun,                                  !- Sun Exposure
  NoWind,                                 !- Wind Exposure
  ,                                       !- View Factor to Ground
  ,                                       !- Number of Vertices
  4.61852778244065e-14, 0, 3.048,         !- X,Y,Z Vertex 1 {m}
  4.61852778244065e-14, 0, 0,             !- X,Y,Z Vertex 2 {m}
  4.57200000000005, 0, 0,                 !- X,Y,Z Vertex 3 {m}
  4.57200000000005, 0, 3.048;             !- X,Y,Z Vertex 4 {m}

OS:Surface,