
OS:Version,
  {c245c934-6923-4041-9e18-80579f1c1df2}, !- Handle
  2.8.0;                                  !- Version Identifier

OS:SpaceType,
  {c3e05d6a-735f-4ff7-9430-7bde4108fa66}, !- Handle
  LargeHotel Banquet,                     !- Name
  ,                                       !- Default Construction Set Name
  ,                                       !- Default Schedule Set Name
  {54d507e3-3f1f-49e0-9249-73b71d7cfd06}, !- Group Rendering Name
  ,                                       !- Design Specification Outdoor Air Object Name
  ,                                       !- Standards Template
  LargeHotel,                             !- Standards Building Type
  Banquet;                                !- Standards Space Type

OS:Rendering:Color,
  {54d507e3-3f1f-49e0-9249-73b71d7cfd06}, !- Handle
  LargeHotel Banquet,                     !- Name
  230,                                    !- Rendering Red Value
  196,                                    !- Rendering Green Value
  120;                                    !- Rendering Blue Value

OS:SpaceType,
  {a9a0d3cd-3b9d-49db-969c-8e7547f048d0}, !- Handle
  LargeHotel Cafe,                        !- Name
  ,                                       !- Default Construction Set Name
  ,                                       !- Default Schedule Set Name
  {90391395-8eea-42a5-aba0-499378cadb6f}, !- Group Rendering Name
  ,                                       !- Design Specification Outdoor Air Object Name
  ,                                       !- Standards Template
  LargeHotel,                             !- Standards Building Type
  Cafe;                                   !- Standards Space Type

OS:Rendering:Color,
  {90391395-8eea-42a5-aba0-499378cadb6f}, !- Handle
  LargeHotel Cafe,                        !- Name
  31,                                     !- Rendering Red Value
  169,                                    !- Rendering Green Value
  34;                                     !- Rendering Blue Value

OS:SpaceType,
  {ea3ca0e8-b593-4608-8214-02d80753e55d}, !- Handle
  LargeHotel Corridor,                    !- Name
  ,                                       !- Default Construction Set Name
  ,                                       !- Default Schedule Set Name
  {019316b2-2f34-47ca-a98b-d4c6c0c00388}, !- Group Rendering Name
  ,                                       !- Design Specification Outdoor Air Object Name
  ,                                       !- Standards Template
  LargeHotel,                             !- Standards Building Type
  Corridor;                               !- Standards Space Type

OS:Rendering:Color,
  {019316b2-2f34-47ca-a98b-d4c6c0c00388}, !- Handle
  LargeHotel Corridor,                    !- Name
  169,                                    !- Rendering Red Value
  31,                                     !- Rendering Green Value
  31;                                     !- Rendering Blue Value

OS:SpaceType,
  {1a50e63e-8260-47fb-96f7-2a202e44f6f5}, !- Handle
  LargeHotel GuestRoom,                   !- Name
  ,                                       !- Default Construction Set Name
  ,                                       !- Default Schedule Set Name
  {9084e8f3-d047-4b8b-b0cc-4b9574f54aee}, !- Group Rendering Name
  ,                                       !- Design Specification Outdoor Air Object Name
  ,                                       !- Standards Template
  LargeHotel,                             !- Standards Building Type
  GuestRoom;                              !- Standards Space Type

OS:Rendering:Color,
  {9084e8f3-d047-4b8b-b0cc-4b9574f54aee}, !- Handle
  LargeHotel GuestRoom,                   !- Name
  78,                                     !- Rendering Red Value
  167,                                    !- Rendering Green Value
  222;                                    !- Rendering Blue Value

OS:SpaceType,
  {863495f6-4138-429c-9568-03c7feb058bf}, !- Handle
  LargeHotel Kitchen,                     !- Name
  ,                                       !- Default Construction Set Name
  ,                                       !- Default Schedule Set Name
  {c2f586d2-95bd-4ff7-8d8a-f2c91ce3629f}, !- Group Rendering Name
  ,                                       !- Design Specification Outdoor Air Object Name
  ,                                       !- Standards Template
  LargeHotel,                             !- Standards Building Type
  Kitchen;                                !- Standards Space Type

OS:Rendering:Color,
  {c2f586d2-95bd-4ff7-8d8a-f2c91ce3629f}, !- Handle
  LargeHotel Kitchen,                     !- Name
  78,                                     !- Rendering Red Value
  222,                                    !- Rendering Green Value
  133;                                    !- Rendering Blue Value

OS:SpaceType,
  {0a4f9699-d4f5-47c8-9d5c-0477f1a81375}, !- Handle
  LargeHotel Laundry,                     !- Name
  ,                                       !- Default Construction Set Name
  ,                                       !- Default Schedule Set Name
  {4a6f8eb7-acbd-467a-979b-354c6b5fd25d}, !- Group Rendering Name
  ,                                       !- Design Specification Outdoor Air Object Name
  ,                                       !- Standards Template
  LargeHotel,                             !- Standards Building Type
  Laundry;                                !- Standards Space Type

OS:Rendering:Color,
  {4a6f8eb7-acbd-467a-979b-354c6b5fd25d}, !- Handle
  LargeHotel Laundry,                     !- Name
  120,                                    !- Rendering Red Value
  149,                                    !- Rendering Green Value
  230;                                    !- Rendering Blue Value

OS:SpaceType,
  {7f09177e-d888-4349-8aa1-536b07cfde73}, !- Handle
  LargeHotel Lobby,                       !- Name
  ,                                       !- Default Construction Set Name
  ,                                       !- Default Schedule Set Name
  {d817acb9-ae68-44a6-947c-01489c8fddc0}, !- Group Rendering Name
  ,                                       !- Design Specification Outdoor Air Object Name
  ,                                       !- Standards Template
  LargeHotel,                             !- Standards Building Type
  Lobby;                                  !- Standards Space Type

OS:Rendering:Color,
  {d817acb9-ae68-44a6-947c-01489c8fddc0}, !- Handle
  LargeHotel Lobby,                       !- Name
  230,                                    !- Rendering Red Value
  157,                                    !- Rendering Green Value
  120;                                    !- Rendering Blue Value

OS:SpaceType,
  {306ce5f7-603e-4a46-a456-fac17e5e2737}, !- Handle
  LargeHotel Mechanical,                  !- Name
  ,                                       !- Default Construction Set Name
  ,                                       !- Default Schedule Set Name
  {995a9242-4c49-43d7-99fb-62481c3ca2c2}, !- Group Rendering Name
  ,                                       !- Design Specification Outdoor Air Object Name
  ,                                       !- Standards Template
  LargeHotel,                             !- Standards Building Type
  Mechanical;                             !- Standards Space Type

OS:Rendering:Color,
  {995a9242-4c49-43d7-99fb-62481c3ca2c2}, !- Handle
  LargeHotel Mechanical,                  !- Name
  41,                                     !- Rendering Red Value
  31,                                     !- Rendering Green Value
  169;                                    !- Rendering Blue Value

OS:SpaceType,
  {c1335bfa-50ec-4da4-9b9c-fea7850900cc}, !- Handle
  LargeHotel Retail,                      !- Name
  ,                                       !- Default Construction Set Name
  ,                                       !- Default Schedule Set Name
  {d4d44a81-3bae-4399-94d3-d7e287496d28}, !- Group Rendering Name
  ,                                       !- Design Specification Outdoor Air Object Name
  ,                                       !- Standards Template
  LargeHotel,                             !- Standards Building Type
  Retail;                                 !- Standards Space Type

OS:Rendering:Color,
  {d4d44a81-3bae-4399-94d3-d7e287496d28}, !- Handle
  LargeHotel Retail,                      !- Name
  171,                                    !- Rendering Red Value
  222,                                    !- Rendering Green Value
  78;                                     !- Rendering Blue Value

OS:SpaceType,
  {6d92fed7-9f0d-4e35-8e98-fa8e2f3fcf45}, !- Handle
  LargeHotel Storage,                     !- Name
  ,                                       !- Default Construction Set Name
  ,                                       !- Default Schedule Set Name
  {d0596a5d-6612-4252-9d53-919e590c448f}, !- Group Rendering Name
  ,                                       !- Design Specification Outdoor Air Object Name
  ,                                       !- Standards Template
  LargeHotel,                             !- Standards Building Type
  Storage;                                !- Standards Space Type

OS:Rendering:Color,
  {d0596a5d-6612-4252-9d53-919e590c448f}, !- Handle
  LargeHotel Storage,                     !- Name
  120,                                    !- Rendering Red Value
  149,                                    !- Rendering Green Value
  230;                                    !- Rendering Blue Value

OS:SpaceType,
  {7b42dca9-8d69-4e6f-9749-a947c75a01c6}, !- Handle
  FullServiceRestaurant Dining,           !- Name
  ,                                       !- Default Construction Set Name
  ,                                       !- Default Schedule Set Name
  {ea412cca-2327-44fc-afda-681e2763874e}, !- Group Rendering Name
  ,                                       !- Design Specification Outdoor Air Object Name
  ,                                       !- Standards Template
  FullServiceRestaurant,                  !- Standards Building Type
  Dining;                                 !- Standards Space Type

OS:Rendering:Color,
  {ea412cca-2327-44fc-afda-681e2763874e}, !- Handle
  FullServiceRestaurant Dining,           !- Name
  31,                                     !- Rendering Red Value
  169,                                    !- Rendering Green Value
  34;                                     !- Rendering Blue Value

OS:SpaceType,
  {fbb71cac-8155-4ec8-b204-66106399f8f8}, !- Handle
  FullServiceRestaurant Kitchen,          !- Name
  ,                                       !- Default Construction Set Name
  ,                                       !- Default Schedule Set Name
  {701e4725-8864-439d-934e-44c36224bbe7}, !- Group Rendering Name
  ,                                       !- Design Specification Outdoor Air Object Name
  ,                                       !- Standards Template
  FullServiceRestaurant,                  !- Standards Building Type
  Kitchen;                                !- Standards Space Type

OS:Rendering:Color,
  {701e4725-8864-439d-934e-44c36224bbe7}, !- Handle
  FullServiceRestaurant Kitchen,          !- Name
  78,                                     !- Rendering Red Value
  222,                                    !- Rendering Green Value
  133;                                    !- Rendering Blue Value

OS:Building,
  {31fa8a35-6417-4809-8850-28da02a1f452}, !- Handle
  90.1-2004|LargeHotel|FullServiceRestaurant, !- Name
  ,                                       !- Building Sector Type
  ,                                       !- North Axis {deg}
  ,                                       !- Nominal Floor to Floor Height {m}
  ,                                       !- Space Type Name
  ,                                       !- Default Construction Set Name
  ;                                       !- Default Schedule Set Name

OS:Site,
  {ae948bb1-0487-4e58-9fdf-5dcd4a64b7d3}, !- Handle
  Site 1,                                 !- Name
  ,                                       !- Latitude {deg}
  ,                                       !- Longitude {deg}
  ,                                       !- Time Zone {hr}
  ,                                       !- Elevation {m}
  ;                                       !- Terrain

OS:BuildingStory,
  {b3bbeeb7-0d1d-42ac-9eea-e1b168bcf337}, !- Handle
  Story Ground,                           !- Name
  0,                                      !- Nominal Z Coordinate {m}
  3.048,                                  !- Nominal Floor to Floor Height {m}
  ,                                       !- Default Construction Set Name
  ,                                       !- Default Schedule Set Name
  ;                                       !- Group Rendering Name

OS:Space,
  {01b3ba1c-09f6-4998-a033-0e3a425ecd57}, !- Handle
  FullServiceRestaurant Kitchen A end_a - Story Ground, !- Name
  {fbb71cac-8155-4ec8-b204-66106399f8f8}, !- Space Type Name
  ,                                       !- Default Construction Set Name
  ,                                       !- Default Schedule Set Name
  -0,                                     !- Direction of Relative North {deg}
  -38.4791138151595,                      !- X Origin {m}
  -7.54492427748226,                      !- Y Origin {m}
  0,                                      !- Z Origin {m}
  {b3bbeeb7-0d1d-42ac-9eea-e1b168bcf337}, !- Building Story Name
  {f775a672-9984-4743-b5b8-c98f6bc38c23}; !- Thermal Zone Name

OS:Surface,
  {ac3c5f83-6e97-4cad-925a-1d5feecaa195}, !- Handle
  Surface 1,                              !- Name
  Floor,                                  !- Surface Type
  ,                                       !- Construction Name
  {01b3ba1c-09f6-4998-a033-0e3a425ecd57}, !- Space Name
  Ground,                                 !- Outside Boundary Condition
  ,                                       !- Outside Boundary Condition Object
  NoSun,                                  !- Sun Exposure
  NoWind,                                 !- Wind Exposure
  ,                                       !- View Factor to Ground
  ,                                       !- Number of Vertices
  1.4210854715202e-14, -1.77635683940025e-15, 0, !- X,Y,Z Vertex 1 {m}
  1.4210854715202e-14, 4.572, 0,          !- X,Y,Z Vertex 2 {m}
  4.57200000000002, 4.572, 0,             !- X,Y,Z Vertex 3 {m}
  4.57200000000002, -1.77635683940025e-15, 0; !- X,Y,Z Vertex 4 {m}

OS:Surface,
  {249870e1-2d12-4531-98bf-b5ea3c8edaf3}, !- Handle
  Surface 2,                              !- Name
  Wall,                                   !- Surface Type
  ,                                       !- Construction Name
  {01b3ba1c-09f6-4998-a033-0e3a425ecd57}, !- Space Name
  Outdoors,                               !- Outside Boundary Condition
  ,                                       !- Outside Boundary Condition Object
  SunExposed,                             !- Sun Exposure
  WindExposed,                            !- Wind Exposure
  ,                                       !- View Factor to Ground
  ,                                       !- Number of Vertices
  1.4210854715202e-14, 4.572, 3.048,      !- X,Y,Z Vertex 1 {m}
  1.4210854715202e-14, 4.572, 0,          !- X,Y,Z Vertex 2 {m}
  1.4210854715202e-14, -1.77635683940025e-15, 0, !- X,Y,Z Vertex 3 {m}
  1.4210854715202e-14, -1.77635683940025e-15, 3.048; !- X,Y,Z Vertex 4 {m}

OS:Surface,
  {6ef89686-9aef-4c23-ac74-216118ece50d}, !- Handle
  Surface 3,                              !- Name
  Wall,                                   !- Surface Type
  ,                                       !- Construction Name
  {01b3ba1c-09f6-4998-a033-0e3a425ecd57}, !- Space Name
  Surface,                                !- Outside Boundary Condition
  {23643776-97da-416d-a4b5-a265fc9d7365}, !- Outside Boundary Condition Object
  NoSun,                                  !- Sun Exposure
  NoWind,                                 !- Wind Exposure
  ,                                       !- View Factor to Ground
  ,                                       !- Number of Vertices
  4.57200000000002, 4.572, 3.048,         !- X,Y,Z Vertex 1 {m}
  4.57200000000002, 4.572, 0,             !- X,Y,Z Vertex 2 {m}
  1.4210854715202e-14, 4.572, 0,          !- X,Y,Z Vertex 3 {m}
  1.4210854715202e-14, 4.572, 3.048;      !- X,Y,Z Vertex 4 {m}

OS:Surface,
  {bd8e85c3-bd0b-4b2d-80ac-af618465c2c6}, !- Handle
  Surface 4,                              !- Name
  Wall,                                   !- Surface Type
  ,                                       !- Construction Name
  {01b3ba1c-09f6-4998-a033-0e3a425ecd57}, !- Space Name
  Surface,                                !- Outside Boundary Condition
  {5b40f61a-8acc-4469-aa40-e5cc94cd5593}, !- Outside Boundary Condition Object
  NoSun,                                  !- Sun Exposure
  NoWind,                                 !- Wind Exposure
  ,                                       !- View Factor to Ground
  ,                                       !- Number of Vertices
  4.57200000000002, -1.77635683940025e-15, 3.048, !- X,Y,Z Vertex 1 {m}
  4.57200000000002, -1.77635683940025e-15, 0, !- X,Y,Z Vertex 2 {m}
  4.57200000000002, 4.572, 0,             !- X,Y,Z Vertex 3 {m}
  4.57200000000002, 4.572, 3.048;         !- X,Y,Z Vertex 4 {m}

OS:Surface,
  {2ed259c2-c640-4b6c-9f52-5ebcf96a9f1f}, !- Handle
  Surface 5,                              !- Name
  Wall,                                   !- Surface Type
  ,                                       !- Construction Name
  {01b3ba1c-09f6-4998-a033-0e3a425ecd57}, !- Space Name
  Outdoors,                               !- Outside Boundary Condition
  ,                                       !- Outside Boundary Condition Object
  SunExposed,                             !- Sun Exposure
  WindExposed,                            !- Wind Exposure
  ,                                       !- View Factor to Ground
  ,                                       !- Number of Vertices
  1.4210854715202e-14, -1.77635683940025e-15, 3.048, !- X,Y,Z Vertex 1 {m}
  1.4210854715202e-14, -1.77635683940025e-15, 0, !- X,Y,Z Vertex 2 {m}
  4.57200000000002, -1.77635683940025e-15, 0, !- X,Y,Z Vertex 3 {m}
  4.57200000000002, -1.77635683940025e-15, 3.048; !- X,Y,Z Vertex 4 {m}

OS:Surface,
  {348cb211-68f4-4ca4-af21-d1c7d295cd13}, !- Handle
  Surface 6,                              !- Name
  RoofCeiling,                            !- Surface Type
  ,                                       !- Construction Name
  {01b3ba1c-09f6-4998-a033-0e3a425ecd57}, !- Space Name
  Adiabatic,                              !- Outside Boundary Condition
  ,                                       !- Outside Boundary Condition Object
  NoSun,                                  !- Sun Exposure
  NoWind,                                 !- Wind Exposure
  ,                                       !- View Factor to Ground
  ,                                       !- Number of Vertices
  4.57200000000002, -1.77635683940025e-15, 3.048, !- X,Y,Z Vertex 1 {m}
  4.57200000000002, 4.572, 3.048,         !- X,Y,Z Vertex 2 {m}
  1.4210854715202e-14, 4.572, 3.048,      !- X,Y,Z Vertex 3 {m}
  1.4210854715202e-14, -1.77635683940025e-15, 3.048; !- X,Y,Z Vertex 4 {m}

OS:ThermalZone,
  {f775a672-9984-4743-b5b8-c98f6bc38c23}, !- Handle
  Zone FullServiceRestaurant Kitchen A end_a - Story Ground, !- Name
  1,                                      !- Multiplier
  ,                                       !- Ceiling Height {m}
  ,                                       !- Volume {m3}
  ,                                       !- Floor Area {m2}
  ,                                       !- Zone Inside Convection Algorithm
  ,                                       !- Zone Outside Convection Algorithm
  ,                                       !- Zone Conditioning Equipment List Name
  {e3f9eae3-3d2a-41a2-b9fc-69efd26b52a1}, !- Zone Air Inlet Port List
  {30234411-7c7d-411b-8c6c-a4a8c7affec9}, !- Zone Air Exhaust Port List
  {c0309053-0628-4a2a-8a13-c3a9dfac6a81}, !- Zone Air Node Name
  {58847ba2-ab2b-4db1-b0a8-dd6686ae0323}, !- Zone Return Air Port List
  ,                                       !- Primary Daylighting Control Name
  ,                                       !- Fraction of Zone Controlled by Primary Daylighting Control
  ,                                       !- Secondary Daylighting Control Name
  ,                                       !- Fraction of Zone Controlled by Secondary Daylighting Control
  ,                                       !- Illuminance Map Name
  ,                                       !- Group Rendering Name
  ,                                       !- Thermostat Name
  No;                                     !- Use Ideal Air Loads

OS:Node,
  {ec87f106-15c5-4e25-a195-bf1c1a566c6e}, !- Handle
  Node 1,                                 !- Name
  {c0309053-0628-4a2a-8a13-c3a9dfac6a81}, !- Inlet Port
  ;                                       !- Outlet Port

OS:Connection,
  {c0309053-0628-4a2a-8a13-c3a9dfac6a81}, !- Handle
  {562789d8-712c-4bf9-837d-cc589b9b2203}, !- Name
  {f775a672-9984-4743-b5b8-c98f6bc38c23}, !- Source Object
  11,                                     !- Outlet Port
  {ec87f106-15c5-4e25-a195-bf1c1a566c6e}, !- Target Object
  2;                                      !- Inlet Port

OS:PortList,
  {e3f9eae3-3d2a-41a2-b9fc-69efd26b52a1}, !- Handle
  {7d5681d5-62e2-49c9-b8d9-aebc2c72c432}, !- Name
  {f775a672-9984-4743-b5b8-c98f6bc38c23}; !- HVAC Component

OS:PortList,
  {30234411-7c7d-411b-8c6c-a4a8c7affec9}, !- Handle
  {131ff9fb-7a0d-40f2-b3f6-1aa1a1bde48c}, !- Name
  {f775a672-9984-4743-b5b8-c98f6bc38c23}; !- HVAC Component

OS:PortList,
  {58847ba2-ab2b-4db1-b0a8-dd6686ae0323}, !- Handle
  {18632227-3a08-4b44-80c6-ab6ca06b8e54}, !- Name
  {f775a672-9984-4743-b5b8-c98f6bc38c23}; !- HVAC Component

OS:Sizing:Zone,
  {3adbaccb-9a88-4177-b928-3c9a8f8f7fcd}, !- Handle
  {f775a672-9984-4743-b5b8-c98f6bc38c23}, !- Zone or ZoneList Name
  SupplyAirTemperature,                   !- Zone Cooling Design Supply Air Temperature Input Method
  14,                                     !- Zone Cooling Design Supply Air Temperature {C}
  11.11,                                  !- Zone Cooling Design Supply Air Temperature Difference {deltaC}
  SupplyAirTemperature,                   !- Zone Heating Design Supply Air Temperature Input Method
  40,                                     !- Zone Heating Design Supply Air Temperature {C}
  11.11,                                  !- Zone Heating Design Supply Air Temperature Difference {deltaC}
  0.0085,                                 !- Zone Cooling Design Supply Air Humidity Ratio {kg-H2O/kg-air}
  0.008,                                  !- Zone Heating Design Supply Air Humidity Ratio {kg-H2O/kg-air}
  ,                                       !- Zone Heating Sizing Factor
  ,                                       !- Zone Cooling Sizing Factor
  DesignDay,                              !- Cooling Design Air Flow Method
  ,                                       !- Cooling Design Air Flow Rate {m3/s}
  ,                                       !- Cooling Minimum Air Flow per Zone Floor Area {m3/s-m2}
  ,                                       !- Cooling Minimum Air Flow {m3/s}
  ,                                       !- Cooling Minimum Air Flow Fraction
  DesignDay,                              !- Heating Design Air Flow Method
  ,                                       !- Heating Design Air Flow Rate {m3/s}
  ,                                       !- Heating Maximum Air Flow per Zone Floor Area {m3/s-m2}
  ,                                       !- Heating Maximum Air Flow {m3/s}
  ,                                       !- Heating Maximum Air Flow Fraction
  ,                                       !- Design Zone Air Distribution Effectiveness in Cooling Mode
  ,                                       !- Design Zone Air Distribution Effectiveness in Heating Mode
  No,                                     !- Account for Dedicated Outdoor Air System
  NeutralSupplyAir,                       !- Dedicated Outdoor Air System Control Strategy
  autosize,                               !- Dedicated Outdoor Air Low Setpoint Temperature for Design {C}
  autosize;                               !- Dedicated Outdoor Air High Setpoint Temperature for Design {C}

OS:ZoneHVAC:EquipmentList,
  {00c9b7fe-b6d3-4954-8cac-f68b86f7c71e}, !- Handle
  Zone HVAC Equipment List 1,             !- Name
  {f775a672-9984-4743-b5b8-c98f6bc38c23}; !- Thermal Zone

OS:Space,
  {7fcc9d9f-846f-4f41-8d15-9ec2e0cd9a1b}, !- Handle
  FullServiceRestaurant Kitchen B end_a - Story Ground, !- Name
  {fbb71cac-8155-4ec8-b204-66106399f8f8}, !- Space Type Name
  ,                                       !- Default Construction Set Name
  ,                                       !- Default Schedule Set Name
  -0,                                     !- Direction of Relative North {deg}
  -38.4791138151595,                      !- X Origin {m}
  -2.97292427748226,                      !- Y Origin {m}
  0,                                      !- Z Origin {m}
  {b3bbeeb7-0d1d-42ac-9eea-e1b168bcf337}, !- Building Story Name
  {30fb94d2-47be-406a-a7a0-941c1ea84ed1}; !- Thermal Zone Name

OS:Surface,
  {60a980ea-c7ea-4601-85f2-132e6cc882cf}, !- Handle
  Surface 7,                              !- Name
  Floor,                                  !- Surface Type
  ,                                       !- Construction Name
  {7fcc9d9f-846f-4f41-8d15-9ec2e0cd9a1b}, !- Space Name
  Ground,                                 !- Outside Boundary Condition
  ,                                       !- Outside Boundary Condition Object
  NoSun,                                  !- Sun Exposure
  NoWind,                                 !- Wind Exposure
  ,                                       !- View Factor to Ground
  ,                                       !- Number of Vertices
  1.4210854715202e-14, -1.77635683940025e-15, 0, !- X,Y,Z Vertex 1 {m}
  1.4210854715202e-14, 5.94584855496452, 0, !- X,Y,Z Vertex 2 {m}
  4.57200000000002, 5.94584855496452, 0,  !- X,Y,Z Vertex 3 {m}
  4.57200000000002, -1.77635683940025e-15, 0; !- X,Y,Z Vertex 4 {m}

OS:Surface,
  {9e4ff6da-872d-4bc0-822e-88730adb9511}, !- Handle
  Surface 8,                              !- Name
  Wall,                                   !- Surface Type
  ,                                       !- Construction Name
  {7fcc9d9f-846f-4f41-8d15-9ec2e0cd9a1b}, !- Space Name
  Outdoors,                               !- Outside Boundary Condition
  ,                                       !- Outside Boundary Condition Object
  SunExposed,                             !- Sun Exposure
  WindExposed,                            !- Wind Exposure
  ,                                       !- View Factor to Ground
  ,                                       !- Number of Vertices
  1.4210854715202e-14, 5.94584855496452, 3.048, !- X,Y,Z Vertex 1 {m}
  1.4210854715202e-14, 5.94584855496452, 0, !- X,Y,Z Vertex 2 {m}
  1.4210854715202e-14, -1.77635683940025e-15, 0, !- X,Y,Z Vertex 3 {m}
  1.4210854715202e-14, -1.77635683940025e-15, 3.048; !- X,Y,Z Vertex 4 {m}

OS:Surface,
  {5e1ecfb3-c599-4287-a62a-2f00b8691d0d}, !- Handle
  Surface 9,                              !- Name
  Wall,                                   !- Surface Type
  ,                                       !- Construction Name
  {7fcc9d9f-846f-4f41-8d15-9ec2e0cd9a1b}, !- Space Name
  Surface,                                !- Outside Boundary Condition
  {b352f76b-2e1b-4378-99ea-cb52eb45be3b}, !- Outside Boundary Condition Object
  NoSun,                                  !- Sun Exposure
  NoWind,                                 !- Wind Exposure
  ,                                       !- View Factor to Ground
  ,                                       !- Number of Vertices
  4.57200000000002, 5.94584855496452, 3.048, !- X,Y,Z Vertex 1 {m}
  4.57200000000002, 5.94584855496452, 0,  !- X,Y,Z Vertex 2 {m}
  1.4210854715202e-14, 5.94584855496452, 0, !- X,Y,Z Vertex 3 {m}
  1.4210854715202e-14, 5.94584855496452, 3.048; !- X,Y,Z Vertex 4 {m}

OS:Surface,
  {9772016c-3418-47e5-b8ae-12c6c0b48e27}, !- Handle
  Surface 10,                             !- Name
  Wall,                                   !- Surface Type
  ,                                       !- Construction Name
  {7fcc9d9f-846f-4f41-8d15-9ec2e0cd9a1b}, !- Space Name
  Surface,                                !- Outside Boundary Condition
  {36ef3bbb-4161-41e7-8640-335af10a94e9}, !- Outside Boundary Condition Object
  NoSun,                                  !- Sun Exposure
  NoWind,                                 !- Wind Exposure
  ,                                       !- View Factor to Ground
  ,                                       !- Number of Vertices
  4.57200000000002, -1.77635683940025e-15, 3.048, !- X,Y,Z Vertex 1 {m}
  4.57200000000002, -1.77635683940025e-15, 0, !- X,Y,Z Vertex 2 {m}
  4.57200000000002, 5.94584855496452, 0,  !- X,Y,Z Vertex 3 {m}
  4.57200000000002, 5.94584855496452, 3.048; !- X,Y,Z Vertex 4 {m}

OS:Surface,
  {23643776-97da-416d-a4b5-a265fc9d7365}, !- Handle
  Surface 11,                             !- Name
  Wall,                                   !- Surface Type
  ,                                       !- Construction Name
  {7fcc9d9f-846f-4f41-8d15-9ec2e0cd9a1b}, !- Space Name
  Surface,                                !- Outside Boundary Condition
  {6ef89686-9aef-4c23-ac74-216118ece50d}, !- Outside Boundary Condition Object
  NoSun,                                  !- Sun Exposure
  NoWind,                                 !- Wind Exposure
  ,                                       !- View Factor to Ground
  ,                                       !- Number of Vertices
  1.4210854715202e-14, -1.77635683940025e-15, 3.048, !- X,Y,Z Vertex 1 {m}