
OS:Version,
  {61abe73a-5cac-4c74-a0fc-68eea7b27455}, !- Handle
  2.8.0;                                  !- Version Identifier

OS:SpaceType,
  {0af64077-140e-4475-a8a2-7557c89705a5}, !- Handle
  LargeHotel Banquet,                     !- Name
  ,                                       !- Default Construction Set Name
  ,                                       !- Default Schedule Set Name
  {f9977192-8b56-4627-90bf-3aa1348dc3aa}, !- Group Rendering Name
  ,                                       !- Design Specification Outdoor Air Object Name
  ,                                       !- Standards Template
  LargeHotel,                             !- Standards Building Type
  Banquet;                                !- Standards Space Type

OS:Rendering:Color,
  {f9977192-8b56-4627-90bf-3aa1348dc3aa}, !- Handle
  LargeHotel Banquet,                     !- Name
  230,                                    !- Rendering Red Value
  196,                                    !- Rendering Green Value
  120;                                    !- Rendering Blue Value

OS:SpaceType,
  {4ac7a6ce-7a4e-4240-ad98-4e0115ad2ee9}, !- Handle
  LargeHotel Cafe,                        !- Name
  ,                                       !- Default Construction Set Name
  ,                                       !- Default Schedule Set Name
  {84c68ddb-fbc4-4b87-a124-3561e238d0cd}, !- Group Rendering Name
  ,                                       !- Design Specification Outdoor Air Object Name
  ,                                       !- Standards Template
  LargeHotel,                             !- Standards Building Type
  Cafe;                                   !- Standards Space Type

OS:Rendering:Color,
  {84c68ddb-fbc4-4b87-a124-3561e238d0cd}, !- Handle
  LargeHotel Cafe,                        !- Name
  31,                                     !- Rendering Red Value
  169,                                    !- Rendering Green Value
  34;                                     !- Rendering Blue Value

OS:SpaceType,
  {8ca984f4-2a99-4268-9f20-9422ea81043c}, !- Handle
  LargeHotel Corridor,                    !- Name
  ,                                       !- Default Construction Set Name
  ,                                       !- Default Schedule Set Name
  {505ee18a-474c-462e-9175-67f63f4492ed}, !- Group Rendering Name
  ,                                       !- Design Specification Outdoor Air Object Name
  ,                                       !- Standards Template
  LargeHotel,                             !- Standards Building Type
  Corridor;                               !- Standards Space Type

OS:Rendering:Color,
  {505ee18a-474c-462e-9175-67f63f4492ed}, !- Handle
  LargeHotel Corridor,                    !- Name
  169,                                    !- Rendering Red Value
  31,                                     !- Rendering Green Value
  31;                                     !- Rendering Blue Value

OS:SpaceType,
  {f588b69a-cbb0-4275-8018-9a5515caefc7}, !- Handle
  LargeHotel GuestRoom,                   !- Name
  ,                                       !- Default Construction Set Name
  ,                                       !- Default Schedule Set Name
  {da7aec07-647b-432f-82a3-9dba3cebffee}, !- Group Rendering Name
  ,                                       !- Design Specification Outdoor Air Object Name
  ,                                       !- Standards Template
  LargeHotel,                             !- Standards Building Type
  GuestRoom;                              !- Standards Space Type

OS:Rendering:Color,
  {da7aec07-647b-432f-82a3-9dba3cebffee}, !- Handle
  LargeHotel GuestRoom,                   !- Name
  78,                                     !- Rendering Red Value
  167,                                    !- Rendering Green Value
  222;                                    !- Rendering Blue Value

OS:SpaceType,
  {285904a4-2dd9-43a2-8709-ac84b589ea49}, !- Handle
  LargeHotel Kitchen,                     !- Name
  ,                                       !- Default Construction Set Name
  ,                                       !- Default Schedule Set Name
  {5ee27537-3ab4-445a-b522-cad2cfa54e7a}, !- Group Rendering Name
  ,                                       !- Design Specification Outdoor Air Object Name
  ,                                       !- Standards Template
  LargeHotel,                             !- Standards Building Type
  Kitchen;                                !- Standards Space Type

OS:Rendering:Color,
  {5ee27537-3ab4-445a-b522-cad2cfa54e7a}, !- Handle
  LargeHotel Kitchen,                     !- Name
  78,                                     !- Rendering Red Value
  222,                                    !- Rendering Green Value
  133;                                    !- Rendering Blue Value

OS:SpaceType,
  {336a6c56-9640-467a-bfb0-4b4937cdae74}, !- Handle
  LargeHotel Laundry,                     !- Name
  ,                                       !- Default Construction Set Name
  ,                                       !- Default Schedule Set Name
  {c34e0b65-44bb-40a4-afe8-9eab4b9033fa}, !- Group Rendering Name
  ,                                       !- Design Specification Outdoor Air Object Name
  ,                                       !- Standards Template
  LargeHotel,                             !- Standards Building Type
  Laundry;                                !- Standards Space Type

OS:Rendering:Color,
  {c34e0b65-44bb-40a4-afe8-9eab4b9033fa}, !- Handle
  LargeHotel Laundry,                     !- Name
  120,                                    !- Rendering Red Value
  149,                                    !- Rendering Green Value
  230;                                    !- Rendering Blue Value

OS:SpaceType,
  {087cad6d-4355-41a3-9d78-9cc260d0df56}, !- Handle
  LargeHotel Lobby,                       !- Name
  ,                                       !- Default Construction Set Name
  ,                                       !- Default Schedule Set Name
  {9c52d772-4f06-4100-81f4-ab08da551565}, !- Group Rendering Name
  ,                                       !- Design Specification Outdoor Air Object Name
  ,                                       !- Standards Template
  LargeHotel,                             !- Standards Building Type
  Lobby;                                  !- Standards Space Type

OS:Rendering:Color,
  {9c52d772-4f06-4100-81f4-ab08da551565}, !- Handle
  LargeHotel Lobby,                       !- Name
  230,                                    !- Rendering Red Value
  157,                                    !- Rendering Green Value
  120;                                    !- Rendering Blue Value

OS:SpaceType,
  {c7c0e46d-5ad3-49c5-a50d-02bd6a998119}, !- Handle
  LargeHotel Mechanical,                  !- Name
  ,                                       !- Default Construction Set Name
  ,                                       !- Default Schedule Set Name
  {a6ab6586-2e64-4947-a668-5847d8f459c0}, !- Group Rendering Name
  ,                                       !- Design Specification Outdoor Air Object Name
  ,                                       !- Standards Template
  LargeHotel,                             !- Standards Building Type
  Mechanical;                             !- Standards Space Type

OS:Rendering:Color,
  {a6ab6586-2e64-4947-a668-5847d8f459c0}, !- Handle
  LargeHotel Mechanical,                  !- Name
  41,                                     !- Rendering Red Value
  31,                                     !- Rendering Green Value
  169;                                    !- Rendering Blue Value

OS:SpaceType,
  {451cd38d-c252-41ea-9911-a60ae024ea09}, !- Handle
  LargeHotel Retail,                      !- Name
  ,                                       !- Default Construction Set Name
  ,                                       !- Default Schedule Set Name
  {eac15309-d7c3-4a7a-8557-937a01440b04}, !- Group Rendering Name
  ,                                       !- Design Specification Outdoor Air Object Name
  ,                                       !- Standards Template
  LargeHotel,                             !- Standards Building Type
  Retail;                                 !- Standards Space Type

OS:Rendering:Color,
  {eac15309-d7c3-4a7a-8557-937a01440b04}, !- Handle
  LargeHotel Retail,                      !- Name
  171,                                    !- Rendering Red Value
  222,                                    !- Rendering Green Value
  78;                                     !- Rendering Blue Value

OS:SpaceType,
  {80c95d4b-f200-4120-82c0-8c094209e493}, !- Handle
  LargeHotel Storage,                     !- Name
  ,                                       !- Default Construction Set Name
  ,                                       !- Default Schedule Set Name
  {66d72199-024f-48f4-8ced-e73a7bad92da}, !- Group Rendering Name
  ,                                       !- Design Specification Outdoor Air Object Name
  ,                                       !- Standards Template
  LargeHotel,                             !- Standards Building Type
  Storage;                                !- Standards Space Type

OS:Rendering:Color,
  {66d72199-024f-48f4-8ced-e73a7bad92da}, !- Handle
  LargeHotel Storage,                     !- Name
  120,                                    !- Rendering Red Value
  149,                                    !- Rendering Green Value
  230;                                    !- Rendering Blue Value

OS:SpaceType,
  {c499c34d-dab2-467b-9e52-d281ba9892b5}, !- Handle
  FullServiceRestaurant Dining,           !- Name
  ,                                       !- Default Construction Set Name
  ,                                       !- Default Schedule Set Name
  {f405980a-acd5-4acf-92b0-5197f2aab236}, !- Group Rendering Name
  ,                                       !- Design Specification Outdoor Air Object Name
  ,                                       !- Standards Template
  FullServiceRestaurant,                  !- Standards Building Type
  Dining;                                 !- Standards Space Type

OS:Rendering:Color,
  {f405980a-acd5-4acf-92b0-5197f2aab236}, !- Handle
  FullServiceRestaurant Dining,           !- Name
  31,                                     !- Rendering Red Value
  169,                                    !- Rendering Green Value
  34;                                     !- Rendering Blue Value

OS:SpaceType,
  {84acea62-4b5c-47cd-a051-d7563baeef83}, !- Handle
  FullServiceRestaurant Kitchen,          !- Name
  ,                                       !- Default Construction Set Name
  ,                                       !- Default Schedule Set Name
  {85a75dfc-0fe2-4597-a42b-0783f62bbd0d}, !- Group Rendering Name
  ,                                       !- Design Specification Outdoor Air Object Name
  ,                                       !- Standards Template
  FullServiceRestaurant,                  !- Standards Building Type
  Kitchen;                                !- Standards Space Type

OS:Rendering:Color,
  {85a75dfc-0fe2-4597-a42b-0783f62bbd0d}, !- Handle
  FullServiceRestaurant Kitchen,          !- Name
  78,                                     !- Rendering Red Value
  222,                                    !- Rendering Green Value
  133;                                    !- Rendering Blue Value

OS:Building,
  {fabcc6ad-79d9-4049-a45e-d1b37cab7a99}, !- Handle
  90.1-2004|LargeHotel|FullServiceRestaurant, !- Name
  ,                                       !- Building Sector Type
  ,                                       !- North Axis {deg}
  ,                                       !- Nominal Floor to Floor Height {m}
  ,                                       !- Space Type Name
  ,                                       !- Default Construction Set Name
  ;                                       !- Default Schedule Set Name

OS:Site,
  {068e4179-7e94-4436-81cf-16e8e1f0c75b}, !- Handle
  Site 1,                                 !- Name
  ,                                       !- Latitude {deg}
  ,                                       !- Longitude {deg}
  ,                                       !- Time Zone {hr}
  ,                                       !- Elevation {m}
  ;                                       !- Terrain

OS:BuildingStory,
  {5edb0d85-be9f-4cde-9f72-01874924514c}, !- Handle
  Story Ground,                           !- Name
  0,                                      !- Nominal Z Coordinate {m}
  3.048,                                  !- Nominal Floor to Floor Height {m}
  ,                                       !- Default Construction Set Name
  ,                                       !- Default Schedule Set Name
  ;                                       !- Group Rendering Name

OS:Space,
  {ac5a915b-249b-445c-9b07-d3b113006ca6}, !- Handle
  FullServiceRestaurant Kitchen A end_a - Story Ground, !- Name
  {84acea62-4b5c-47cd-a051-d7563baeef83}, !- Space Type Name
  ,                                       !- Default Construction Set Name
  ,                                       !- Default Schedule Set Name
  -0,                                     !- Direction of Relative North {deg}
  -24.9838407775906,                      !- X Origin {m}
  -11.6203910593445,                      !- Y Origin {m}
  0,                                      !- Z Origin {m}
  {5edb0d85-be9f-4cde-9f72-01874924514c}, !- Building Story Name
  {ac362197-580d-4e4f-8a87-348e174814f1}; !- Thermal Zone Name

OS:Surface,
  {accc05c9-710e-4889-9aad-c3a43f940689}, !- Handle
  Surface 1,                              !- Name
  Floor,                                  !- Surface Type
  ,                                       !- Construction Name
  {ac5a915b-249b-445c-9b07-d3b113006ca6}, !- Space Name
  Ground,                                 !- Outside Boundary Condition
  ,                                       !- Outside Boundary Condition Object
  NoSun,                                  !- Sun Exposure
  NoWind,                                 !- Wind Exposure
  ,                                       !- View Factor to Ground
  ,                                       !- Number of Vertices
  2.1316282072803e-14, -2.48689957516035e-14, 0, !- X,Y,Z Vertex 1 {m}
  2.1316282072803e-14, 4.572, 0,          !- X,Y,Z Vertex 2 {m}
  4.57200000000002, 4.572, 0,             !- X,Y,Z Vertex 3 {m}
  4.57200000000002, -2.48689957516035e-14, 0; !- X,Y,Z Vertex 4 {m}

OS:Surface,
  {ce1e31b8-cca8-46ed-b98c-15569923863b}, !- Handle
  Surface 2,                              !- Name
  Wall,                                   !- Surface Type
  ,                                       !- Construction Name
  {ac5a915b-249b-445c-9b07-d3b113006ca6}, !- Space Name
  Adiabatic,                              !- Outside Boundary Condition
  ,                                       !- Outside Boundary Condition Object
  NoSun,                                  !- Sun Exposure
  NoWind,                                 !- Wind Exposure
  ,                                       !- View Factor to Ground
  ,                                       !- Number of Vertices
  2.1316282072803e-14, 4.572, 3.048,      !- X,Y,Z Vertex 1 {m}
  2.1316282072803e-14, 4.572, 0,          !- X,Y,Z Vertex 2 {m}
  2.1316282072803e-14, -2.48689957516035e-14, 0, !- X,Y,Z Vertex 3 {m}
  2.1316282072803e-14, -2.48689957516035e-14, 3.048; !- X,Y,Z Vertex 4 {m}

OS:Surface,
  {c9f765d7-68a0-4dc9-b801-2332bc0cbd75}, !- Handle
  Surface 3,                              !- Name
  Wall,                                   !- Surface Type
  ,                                       !- Construction Name
  {ac5a915b-249b-445c-9b07-d3b113006ca6}, !- Space Name
  Surface,                                !- Outside Boundary Condition
  {7c4c25ed-56a7-460d-a511-83faec9a82d4}, !- Outside Boundary Condition Object
  NoSun,                                  !- Sun Exposure
  NoWind,                                 !- Wind Exposure
  ,                                       !- View Factor to Ground
  ,                                       !- Number of Vertices
  4.57200000000002, 4.572, 3.048,         !- X,Y,Z Vertex 1 {m}
  4.57200000000002, 4.572, 0,             !- X,Y,Z Vertex 2 {m}
  2.1316282072803e-14, 4.572, 0,          !- X,Y,Z Vertex 3 {m}
  2.1316282072803e-14, 4.572, 3.048;      !- X,Y,Z Vertex 4 {m}

OS:Surface,
  {3744abde-a85a-4067-8332-d67cb4795e16}, !- Handle
  Surface 4,                              !- Name
  Wall,                                   !- Surface Type
  ,                                       !- Construction Name
  {ac5a915b-249b-445c-9b07-d3b113006ca6}, !- Space Name
  Surface,                                !- Outside Boundary Condition
  {0f2db416-e4a5-4c48-8c69-d83fd697bce0}, !- Outside Boundary Condition Object
  NoSun,                                  !- Sun Exposure
  NoWind,                                 !- Wind Exposure
  ,                                       !- View Factor to Ground
  ,                                       !- Number of Vertices
  4.57200000000002, -2.48689957516035e-14, 3.048, !- X,Y,Z Vertex 1 {m}
  4.57200000000002, -2.48689957516035e-14, 0, !- X,Y,Z Vertex 2 {m}
  4.57200000000002, 4.572, 0,             !- X,Y,Z Vertex 3 {m}
  4.57200000000002, 4.572, 3.048;         !- X,Y,Z Vertex 4 {m}

OS:Surface,
  {c18483d8-0121-4767-80c4-9fd892d159d0}, !- Handle
  Surface 5,                              !- Name
  Wall,                                   !- Surface Type
  ,                                       !- Construction Name
  {ac5a915b-249b-445c-9b07-d3b113006ca6}, !- Space Name
  Outdoors,                               !- Outside Boundary Condition
  ,                                       !- Outside Boundary Condition Object
  SunExposed,                             !- Sun Exposure
  WindExposed,                            !- Wind Exposure
  ,                                       !- View Factor to Ground
  ,                                       !- Number of Vertices
  2.1316282072803e-14, -2.48689957516035e-14, 3.048, !- X,Y,Z Vertex 1 {m}
  2.1316282072803e-14, -2.48689957516035e-14, 0, !- X,Y,Z Vertex 2 {m}
  4.57200000000002, -2.48689957516035e-14, 0, !- X,Y,Z Vertex 3 {m}
  4.57200000000002, -2.48689957516035e-14, 3.048; !- X,Y,Z Vertex 4 {m}

OS:Surface,
  {989e931a-1e04-4182-a38f-04ab8d65024b}, !- Handle
  Surface 6,                              !- Name
  RoofCeiling,                            !- Surface Type
  ,                                       !- Construction Name
  {ac5a915b-249b-445c-9b07-d3b113006ca6}, !- Space Name
  Adiabatic,                              !- Outside Boundary Condition
  ,                                       !- Outside Boundary Condition Object
  NoSun,                                  !- Sun Exposure
  NoWind,                                 !- Wind Exposure
  ,                                       !- View Factor to Ground
  ,                                       !- Number of Vertices
  4.57200000000002, -2.48689957516035e-14, 3.048, !- X,Y,Z Vertex 1 {m}
  4.57200000000002, 4.572, 3.048,         !- X,Y,Z Vertex 2 {m}
  2.1316282072803e-14, 4.572, 3.048,      !- X,Y,Z Vertex 3 {m}
  2.1316282072803e-14, -2.48689957516035e-14, 3.048; !- X,Y,Z Vertex 4 {m}

OS:ThermalZone,
  {ac362197-580d-4e4f-8a87-348e174814f1}, !- Handle
  Zone FullServiceRestaurant Kitchen A end_a - Story Ground, !- Name
  1,                                      !- Multiplier
  ,                                       !- Ceiling Height {m}
  ,                                       !- Volume {m3}
  ,                                       !- Floor Area {m2}
  ,                                       !- Zone Inside Convection Algorithm
  ,                                       !- Zone Outside Convection Algorithm
  ,                                       !- Zone Conditioning Equipment List Name
  {7119c48e-156c-4282-955a-bbe1bb83a455}, !- Zone Air Inlet Port List
  {8bce3e52-099f-4194-b374-4213d5606b52}, !- Zone Air Exhaust Port List
  {822e1da7-3a3b-4bf1-bf00-4e6296f0b33e}, !- Zone Air Node Name
  {b5eeed0d-f8e1-40e1-90a1-da3563c5e57f}, !- Zone Return Air Port List
  ,                                       !- Primary Daylighting Control Name
  ,                                       !- Fraction of Zone Controlled by Primary Daylighting Control
  ,                                       !- Secondary Daylighting Control Name
  ,                                       !- Fraction of Zone Controlled by Secondary Daylighting Control
  ,                                       !- Illuminance Map Name
  ,                                       !- Group Rendering Name
  ,                                       !- Thermostat Name
  No;                                     !- Use Ideal Air Loads

OS:Node,
  {1fae4096-4672-495b-a380-58d979e48dc6}, !- Handle
  Node 1,                                 !- Name
  {822e1da7-3a3b-4bf1-bf00-4e6296f0b33e}, !- Inlet Port
  ;                                       !- Outlet Port

OS:Connection,
  {822e1da7-3a3b-4bf1-bf00-4e6296f0b33e}, !- Handle
  {d67da6d1-d821-400e-9eae-db839708b7ea}, !- Name
  {ac362197-580d-4e4f-8a87-348e174814f1}, !- Source Object
  11,                                     !- Outlet Port
  {1fae4096-4672-495b-a380-58d979e48dc6}, !- Target Object
  2;                                      !- Inlet Port

OS:PortList,
  {7119c48e-156c-4282-955a-bbe1bb83a455}, !- Handle
  {834d371c-d657-4991-8c72-cc2323ecc461}, !- Name
  {ac362197-580d-4e4f-8a87-348e174814f1}; !- HVAC Component

OS:PortList,
  {8bce3e52-099f-4194-b374-4213d5606b52}, !- Handle
  {3751edca-fda9-462f-9b58-e142610f41dd}, !- Name
  {ac362197-580d-4e4f-8a87-348e174814f1}; !- HVAC Component

OS:PortList,
  {b5eeed0d-f8e1-40e1-90a1-da3563c5e57f}, !- Handle
  {8e127d25-5667-4431-bd29-e6952dc13afd}, !- Name
  {ac362197-580d-4e4f-8a87-348e174814f1}; !- HVAC Component

OS:Sizing:Zone,
  {d3da42d9-a38b-4052-87d8-ed2c783af531}, !- Handle
  {ac362197-580d-4e4f-8a87-348e174814f1}, !- Zone or ZoneList Name
  SupplyAirTemperature,                   !- Zone Cooling Design Supply Air Temperature Input Method
  14,                                     !- Zone Cooling Design Supply Air Temperature {C}
  11.11,                                  !- Zone Cooling Design Supply Air Temperature Difference {deltaC}
  SupplyAirTemperature,                   !- Zone Heating Design Supply Air Temperature Input Method
  40,                                     !- Zone Heating Design Supply Air Temperature {C}
  11.11,                                  !- Zone Heating Design Supply Air Temperature Difference {deltaC}
  0.0085,                                 !- Zone Cooling Design Supply Air Humidity Ratio {kg-H2O/kg-air}
  0.008,                                  !- Zone Heating Design Supply Air Humidity Ratio {kg-H2O/kg-air}
  ,                                       !- Zone Heating Sizing Factor
  ,                                       !- Zone Cooling Sizing Factor
  DesignDay,                              !- Cooling Design Air Flow Method
  ,                                       !- Cooling Design Air Flow Rate {m3/s}
  ,                                       !- Cooling Minimum Air Flow per Zone Floor Area {m3/s-m2}
  ,                                       !- Cooling Minimum Air Flow {m3/s}
  ,                                       !- Cooling Minimum Air Flow Fraction
  DesignDay,                              !- Heating Design Air Flow Method
  ,                                       !- Heating Design Air Flow Rate {m3/s}
  ,                                       !- Heating Maximum Air Flow per Zone Floor Area {m3/s-m2}
  ,                                       !- Heating Maximum Air Flow {m3/s}
  ,                                       !- Heating Maximum Air Flow Fraction
  ,                                       !- Design Zone Air Distribution Effectiveness in Cooling Mode
  ,                                       !- Design Zone Air Distribution Effectiveness in Heating Mode
  No,                                     !- Account for Dedicated Outdoor Air System
  NeutralSupplyAir,                       !- Dedicated Outdoor Air System Control Strategy
  autosize,                               !- Dedicated Outdoor Air Low Setpoint Temperature for Design {C}
  autosize;                               !- Dedicated Outdoor Air High Setpoint Temperature for Design {C}

OS:ZoneHVAC:EquipmentList,
  {bd298d28-e114-4efe-b562-7f251f042cd1}, !- Handle
  Zone HVAC Equipment List 1,             !- Name
  {ac362197-580d-4e4f-8a87-348e174814f1}; !- Thermal Zone

OS:Space,
  {13fd294b-045c-48a0-8557-4948a6ee50e4}, !- Handle
  FullServiceRestaurant Kitchen B end_a - Story Ground, !- Name
  {84acea62-4b5c-47cd-a051-d7563baeef83}, !- Space Type Name
  ,                                       !- Default Construction Set Name
  ,                                       !- Default Schedule Set Name
  -0,                                     !- Direction of Relative North {deg}
  -24.9838407775906,                      !- X Origin {m}
  -7.04839105934448,                      !- Y Origin {m}
  0,                                      !- Z Origin {m}
  {5edb0d85-be9f-4cde-9f72-01874924514c}, !- Building Story Name
  {72b10d31-fe74-4a04-b13f-cb7b3af84e45}; !- Thermal Zone Name

OS:Surface,
  {07d76f38-7817-45e5-9bf8-4f5c1fea5a01}, !- Handle
  Surface 7,                              !- Name
  Floor,                                  !- Surface Type
  ,                                       !- Construction Name
  {13fd294b-045c-48a0-8557-4948a6ee50e4}, !- Space Name
  Ground,                                 !- Outside Boundary Condition
  ,                                       !- Outside Boundary Condition Object
  NoSun,                                  !- Sun Exposure
  NoWind,                                 !- Wind Exposure
  ,                                       !- View Factor to Ground
  ,                                       !- Number of Vertices
  2.1316282072803e-14, -4.44089209850063e-15, 0, !- X,Y,Z Vertex 1 {m}
  2.1316282072803e-14, 14.096782118689, 0, !- X,Y,Z Vertex 2 {m}
  4.57200000000002, 14.096782118689, 0,   !- X,Y,Z Vertex 3 {m}
  4.57200000000002, -4.44089209850063e-15, 0; !- X,Y,Z Vertex 4 {m}

OS:Surface,
  {2459e324-5140-4e20-a2de-f533a6c25b94}, !- Handle
  Surface 8,                              !- Name
  Wall,                                   !- Surface Type
  ,                                       !- Construction Name
  {13fd294b-045c-48a0-8557-4948a6ee50e4}, !- Space Name
  Adiabatic,                              !- Outside Boundary Condition
  ,                                       !- Outside Boundary Condition Object
  NoSun,                                  !- Sun Exposure
  NoWind,                                 !- Wind Exposure
  ,                                       !- View Factor to Ground
  ,                                       !- Number of Vertices
  2.1316282072803e-14, 14.096782118689, 3.048, !- X,Y,Z Vertex 1 {m}
  2.1316282072803e-14, 14.096782118689, 0, !- X,Y,Z Vertex 2 {m}
  2.1316282072803e-14, -4.44089209850063e-15, 0, !- X,Y,Z Vertex 3 {m}
  2.1316282072803e-14, -4.44089209850063e-15, 3.048; !- X,Y,Z Vertex 4 {m}

OS:Surface,
  {8c7795d7-d0f7-4f75-8712-c5aad9ec8eab}, !- Handle
  Surface 9,                              !- Name
  Wall,                                   !- Surface Type
  ,                                       !- Construction Name
  {13fd294b-045c-48a0-8557-4948a6ee50e4}, !- Space Name
  Surface,                                !- Outside Boundary Condition
  {b5cd707a-d7e3-4bff-a9eb-db56673d188f}, !- Outside Boundary Condition Object
  NoSun,                                  !- Sun Exposure
  NoWind,                                 !- Wind Exposure
  ,                                       !- View Factor to Ground
  ,                                       !- Number of Vertices
  4.57200000000002, 14.096782118689, 3.048, !- X,Y,Z Vertex 1 {m}
  4.57200000000002, 14.096782118689, 0,   !- X,Y,Z Vertex 2 {m}
  2.1316282072803e-14, 14.096782118689, 0, !- X,Y,Z Vertex 3 {m}
  2.1316282072803e-14, 14.096782118689, 3.048; !- X,Y,Z Vertex 4 {m}

OS:Surface,
  {ecdc3a63-e5d4-4038-bcbf-39a5b950ac34}, !- Handle
  Surface 10,                             !- Name
  Wall,                                   !- Surface Type
  ,                                       !- Construction Name
  {13fd294b-045c-48a0-8557-4948a6ee50e4}, !- Space Name
  Surface,                                !- Outside Boundary Condition
  {8e68797e-00a4-4583-ad8d-4e1d710a22ae}, !- Outside Boundary Condition Object
  NoSun,                                  !- Sun Exposure
  NoWind,                                 !- Wind Exposure
  ,                                       !- View Factor to Ground
  ,                                       !- Number of Vertices
  4.57200000000002, -4.44089209850063e-15, 3.048, !- X,Y,Z Vertex 1 {m}
  4.57200000000002, -4.44089209850063e-15, 0, !- X,Y,Z Vertex 2 {m}
  4.57200000000002, 14.096782118689, 0,   !- X,Y,Z Vertex 3 {m}
  4.57200000000002, 14.096782118689, 3.048; !- X,Y,Z Vertex 4 {m}

OS:Surface,
  {7c4c25ed-56a7-460d-a511-83faec9a82d4}, !- Handle
  Surface 11,                             !- Name
  Wall,                                   !- Surface Type
  ,                                       !- Construction Name
  {13fd294b-045c-48a0-8557-4948a6ee50e4}, !- Space Name
  Surface,                                !- Outside Boundary Condition
  {c9f765d7-68a0-4dc9-b801-2332bc0cbd75}, !- Outside Boundary Condition Object
  NoSun,                                  !- Sun Exposure
  NoWind,                                 !- Wind Exposure
  ,                                       !- View Factor to Ground
  ,                                       !- Number of Vertices
  2.1316282072803e-14, -4.44089209850063e-15, 3.048, !- X,Y,Z Vertex 1 {m}