
OS:Version,
  {98949736-3c32-4ba6-937b-6bc3e72e6d17}, !- Handle
  2.8.0;                                  !- Version Identifier

OS:SpaceType,
  {00a99580-09d1-40b1-93ac-4ee2df800cf7}, !- Handle
  PrimarySchool Cafeteria,                !- Name
  ,                                       !- Default Construction Set Name
  ,                                       !- Default Schedule Set Name
  {0ac08e0f-a3bf-43c6-af31-8ea448d53498}, !- Group Rendering Name
  ,                                       !- Design Specification Outdoor Air Object Name
  ,                                       !- Standards Template
  PrimarySchool,                          !- Standards Building Type
  Cafeteria;                              !- Standards Space Type

OS:Rendering:Color,
  {0ac08e0f-a3bf-43c6-af31-8ea448d53498}, !- Handle
  PrimarySchool Cafeteria,                !- Name
  31,                                     !- Rendering Red Value
  169,                                    !- Rendering Green Value
  34;                                     !- Rendering Blue Value

OS:SpaceType,
  {abdd0469-e291-468f-bc2f-096de552c2b6}, !- Handle
  PrimarySchool Classroom,                !- Name
  ,                                       !- Default Construction Set Name
  ,                                       !- Default Schedule Set Name
  {a196c8ae-7b93-42ed-8d9d-be4cccc445a3}, !- Group Rendering Name
  ,                                       !- Design Specification Outdoor Air Object Name
  ,                                       !- Standards Template
  PrimarySchool,                          !- Standards Building Type
  Classroom;                              !- Standards Space Type

OS:Rendering:Color,
  {a196c8ae-7b93-42ed-8d9d-be4cccc445a3}, !- Handle
  PrimarySchool Classroom,                !- Name
  120,                                    !- Rendering Red Value
  230,                                    !- Rendering Green Value
  199;                                    !- Rendering Blue Value

OS:SpaceType,
  {b4991931-69b4-41e3-9821-ef05e8a6cf2c}, !- Handle
  PrimarySchool Corridor,                 !- Name
  ,                                       !- Default Construction Set Name
  ,                                       !- Default Schedule Set Name
  {7a8936bd-b532-4e42-a0da-f8ac43ce167c}, !- Group Rendering Name
  ,                                       !- Design Specification Outdoor Air Object Name
  ,                                       !- Standards Template
  PrimarySchool,                          !- Standards Building Type
  Corridor;                               !- Standards Space Type

OS:Rendering:Color,
  {7a8936bd-b532-4e42-a0da-f8ac43ce167c}, !- Handle
  PrimarySchool Corridor,                 !- Name
  169,                                    !- Rendering Red Value
  31,                                     !- Rendering Green Value
  31;                                     !- Rendering Blue Value

OS:SpaceType,
  {6635e69f-afd4-4a2c-8d22-8851464f8002}, !- Handle
  PrimarySchool Gym,                      !- Name
  ,                                       !- Default Construction Set Name
  ,                                       !- Default Schedule Set Name
  {a70d8e78-a90d-4963-a004-6ef95c9ae3a7}, !- Group Rendering Name
  ,                                       !- Design Specification Outdoor Air Object Name
  ,                                       !- Standards Template
  PrimarySchool,                          !- Standards Building Type
  Gym;                                    !- Standards Space Type

OS:Rendering:Color,
  {a70d8e78-a90d-4963-a004-6ef95c9ae3a7}, !- Handle
  PrimarySchool Gym,                      !- Name
  154,                                    !- Rendering Red Value
  230,                                    !- Rendering Green Value
  120;                                    !- Rendering Blue Value

OS:SpaceType,
  {ce0c5dad-fe32-48e8-bc22-2f63423b15d0}, !- Handle
  PrimarySchool Kitchen,                  !- Name
  ,                                       !- Default Construction Set Name
  ,                                       !- Default Schedule Set Name
  {09edacd1-b900-401b-b1f2-8a2033c7a81e}, !- Group Rendering Name
  ,                                       !- Design Specification Outdoor Air Object Name
  ,                                       !- Standards Template
  PrimarySchool,                          !- Standards Building Type
  Kitchen;                                !- Standards Space Type

OS:Rendering:Color,
  {09edacd1-b900-401b-b1f2-8a2033c7a81e}, !- Handle
  PrimarySchool Kitchen,                  !- Name
  78,                                     !- Rendering Red Value
  222,                                    !- Rendering Green Value
  133;                                    !- Rendering Blue Value

OS:SpaceType,
  {795ba33c-6e0b-4f1b-96fe-8a382bde744e}, !- Handle
  PrimarySchool Library,                  !- Name
  ,                                       !- Default Construction Set Name
  ,                                       !- Default Schedule Set Name
  {0a21081c-6ef3-4d1b-b074-eed66b2310d8}, !- Group Rendering Name
  ,                                       !- Design Specification Outdoor Air Object Name
  ,                                       !- Standards Template
  PrimarySchool,                          !- Standards Building Type
  Library;                                !- Standards Space Type

OS:Rendering:Color,
  {0a21081c-6ef3-4d1b-b074-eed66b2310d8}, !- Handle
  PrimarySchool Library,                  !- Name
  230,                                    !- Rendering Red Value
  196,                                    !- Rendering Green Value
  120;                                    !- Rendering Blue Value

OS:SpaceType,
  {d0deca17-41fa-4547-8a8a-41e8e48e1fbf}, !- Handle
  PrimarySchool Lobby,                    !- Name
  ,                                       !- Default Construction Set Name
  ,                                       !- Default Schedule Set Name
  {b60419eb-8ce1-460a-904b-990cc3fd0b73}, !- Group Rendering Name
  ,                                       !- Design Specification Outdoor Air Object Name
  ,                                       !- Standards Template
  PrimarySchool,                          !- Standards Building Type
  Lobby;                                  !- Standards Space Type

OS:Rendering:Color,
  {b60419eb-8ce1-460a-904b-990cc3fd0b73}, !- Handle
  PrimarySchool Lobby,                    !- Name
  230,                                    !- Rendering Red Value
  157,                                    !- Rendering Green Value
  120;                                    !- Rendering Blue Value

OS:SpaceType,
  {71573b31-21be-4343-bc02-e4ec66a2ea70}, !- Handle
  PrimarySchool Mechanical,               !- Name
  ,                                       !- Default Construction Set Name
  ,                                       !- Default Schedule Set Name
  {cd1eb292-004f-4437-8c08-ff6e3b3b53db}, !- Group Rendering Name
  ,                                       !- Design Specification Outdoor Air Object Name
  ,                                       !- Standards Template
  PrimarySchool,                          !- Standards Building Type
  Mechanical;                             !- Standards Space Type

OS:Rendering:Color,
  {cd1eb292-004f-4437-8c08-ff6e3b3b53db}, !- Handle
  PrimarySchool Mechanical,               !- Name
  41,                                     !- Rendering Red Value
  31,                                     !- Rendering Green Value
  169;                                    !- Rendering Blue Value

OS:SpaceType,
  {ca92056a-ceba-4289-a8cd-5d7fb070de84}, !- Handle
  PrimarySchool Office,                   !- Name
  ,                                       !- Default Construction Set Name
  ,                                       !- Default Schedule Set Name
  {d40eb777-263e-4db8-8da7-0ada5c66a3af}, !- Group Rendering Name
  ,                                       !- Design Specification Outdoor Air Object Name
  ,                                       !- Standards Template
  PrimarySchool,                          !- Standards Building Type
  Office;                                 !- Standards Space Type

OS:Rendering:Color,
  {d40eb777-263e-4db8-8da7-0ada5c66a3af}, !- Handle
  PrimarySchool Office,                   !- Name
  120,                                    !- Rendering Red Value
  230,                                    !- Rendering Green Value
  199;                                    !- Rendering Blue Value

OS:SpaceType,
  {f70174ea-3989-40eb-a17f-96489ed63541}, !- Handle
  PrimarySchool Restroom,                 !- Name
  ,                                       !- Default Construction Set Name
  ,                                       !- Default Schedule Set Name
  {a840027d-05c6-4a80-9a86-c370f9b09b80}, !- Group Rendering Name
  ,                                       !- Design Specification Outdoor Air Object Name
  ,                                       !- Standards Template
  PrimarySchool,                          !- Standards Building Type
  Restroom;                               !- Standards Space Type

OS:Rendering:Color,
  {a840027d-05c6-4a80-9a86-c370f9b09b80}, !- Handle
  PrimarySchool Restroom,                 !- Name
  169,                                    !- Rendering Red Value
  169,                                    !- Rendering Green Value
  31;                                     !- Rendering Blue Value

OS:Building,
  {4f5b1b4d-72dc-48ed-a3a0-0021bbc12338}, !- Handle
  90.1-2004|PrimarySchool,                !- Name
  ,                                       !- Building Sector Type
  -90,                                    !- North Axis {deg}
  ,                                       !- Nominal Floor to Floor Height {m}
  ,                                       !- Space Type Name
  ,                                       !- Default Construction Set Name
  ;                                       !- Default Schedule Set Name

OS:Site,
  {24ec5cae-8414-47ca-8c2b-23c00d622671}, !- Handle
  Site 1,                                 !- Name
  ,                                       !- Latitude {deg}
  ,                                       !- Longitude {deg}
  ,                                       !- Time Zone {hr}
  ,                                       !- Elevation {m}
  ;                                       !- Terrain

OS:BuildingStory,
  {cf9426b0-d3b2-421e-8380-62a672d6db0d}, !- Handle
  Story Ground,                           !- Name
  0,                                      !- Nominal Z Coordinate {m}
  3.9624,                                 !- Nominal Floor to Floor Height {m}
  ,                                       !- Default Construction Set Name
  ,                                       !- Default Schedule Set Name
  ;                                       !- Group Rendering Name

OS:Space,
  {23f4e091-465b-424f-b6b5-edc7684cf223}, !- Handle
  PrimarySchool Office A end_a - Story Ground, !- Name
  {ca92056a-ceba-4289-a8cd-5d7fb070de84}, !- Space Type Name
  ,                                       !- Default Construction Set Name
  ,                                       !- Default Schedule Set Name
  -0,                                     !- Direction of Relative North {deg}
  -97.5836133784766,                      !- X Origin {m}
  -7.93362710394119,                      !- Y Origin {m}
  0,                                      !- Z Origin {m}
  {cf9426b0-d3b2-421e-8380-62a672d6db0d}, !- Building Story Name
  {e141c48c-8563-4ead-927b-4afb272d0805}; !- Thermal Zone Name

OS:Surface,
  {f3bb374f-eda1-4ab9-a2aa-28c4c3c4ed9d}, !- Handle
  Surface 1,                              !- Name
  Floor,                                  !- Surface Type
  ,                                       !- Construction Name
  {23f4e091-465b-424f-b6b5-edc7684cf223}, !- Space Name
  Ground,                                 !- Outside Boundary Condition
  ,                                       !- Outside Boundary Condition Object
  NoSun,                                  !- Sun Exposure
  NoWind,                                 !- Wind Exposure
  ,                                       !- View Factor to Ground
  ,                                       !- Number of Vertices
  2.8421709430404e-14, -2.66453525910038e-15, 0, !- X,Y,Z Vertex 1 {m}
  2.8421709430404e-14, 4.572, 0,          !- X,Y,Z Vertex 2 {m}
  4.57200000000003, 4.572, 0,             !- X,Y,Z Vertex 3 {m}
  4.57200000000003, -2.66453525910038e-15, 0; !- X,Y,Z Vertex 4 {m}

OS:Surface,
  {5d313cb6-6453-48f1-b1b7-c6d621448e95}, !- Handle
  Surface 2,                              !- Name
  Wall,                                   !- Surface Type
  ,                                       !- Construction Name
  {23f4e091-465b-424f-b6b5-edc7684cf223}, !- Space Name
  Outdoors,                               !- Outside Boundary Condition
  ,                                       !- Outside Boundary Condition Object
  SunExposed,                             !- Sun Exposure
  WindExposed,                            !- Wind Exposure
  ,                                       !- View Factor to Ground
  ,                                       !- Number of Vertices
  2.8421709430404e-14, 4.572, 3.9624,     !- X,Y,Z Vertex 1 {m}
  2.8421709430404e-14, 4.572, 0,          !- X,Y,Z Vertex 2 {m}
  2.8421709430404e-14, -2.66453525910038e-15, 0, !- X,Y,Z Vertex 3 {m}
  2.8421709430404e-14, -2.66453525910038e-15, 3.9624; !- X,Y,Z Vertex 4 {m}

OS:Surface,
  {9358efd5-9a15-411d-a415-89be81cb7793}, !- Handle
  Surface 3,                              !- Name
  Wall,                                   !- Surface Type
  ,                                       !- Construction Name
  {23f4e091-465b-424f-b6b5-edc7684cf223}, !- Space Name
  Surface,                                !- Outside Boundary Condition
  {78c68fd0-1649-4075-95da-1da1a8d72a9f}, !- Outside Boundary Condition Object
  NoSun,                                  !- Sun Exposure
  NoWind,                                 !- Wind Exposure
  ,                                       !- View Factor to Ground
  ,                                       !- Number of Vertices
  4.57200000000003, 4.572, 3.9624,        !- X,Y,Z Vertex 1 {m}
  4.57200000000003, 4.572, 0,             !- X,Y,Z Vertex 2 {m}
  2.8421709430404e-14, 4.572, 0,          !- X,Y,Z Vertex 3 {m}
  2.8421709430404e-14, 4.572, 3.9624;     !- X,Y,Z Vertex 4 {m}

OS:Surface,
  {57cfda60-bff2-47e8-923e-76bb7a4f949d}, !- Handle
  Surface 4,                              !- Name
  Wall,                                   !- Surface Type
  ,                                       !- Construction Name
  {23f4e091-465b-424f-b6b5-edc7684cf223}, !- Space Name
  Surface,                                !- Outside Boundary Condition
  {3533f0a8-d169-4def-942d-6bc1a136118a}, !- Outside Boundary Condition Object
  NoSun,                                  !- Sun Exposure
  NoWind,                                 !- Wind Exposure
  ,                                       !- View Factor to Ground
  ,                                       !- Number of Vertices
  4.57200000000003, -2.66453525910038e-15, 3.9624, !- X,Y,Z Vertex 1 {m}
  4.57200000000003, -2.66453525910038e-15, 0, !- X,Y,Z Vertex 2 {m}
  4.57200000000003, 4.572, 0,             !- X,Y,Z Vertex 3 {m}
  4.57200000000003, 4.572, 3.9624;        !- X,Y,Z Vertex 4 {m}

OS:Surface,
  {ee501c6b-daf9-41bc-ba43-7cdcd84388d7}, !- Handle
  Surface 5,                              !- Name
  Wall,                                   !- Surface Type
  ,                                       !- Construction Name
  {23f4e091-465b-424f-b6b5-edc7684cf223}, !- Space Name
  Adiabatic,                              !- Outside Boundary Condition
  ,                                       !- Outside Boundary Condition Object
  NoSun,                                  !- Sun Exposure
  NoWind,                                 !- Wind Exposure
  ,                                       !- View Factor to Ground
  ,                                       !- Number of Vertices
  2.8421709430404e-14, -2.66453525910038e-15, 3.9624, !- X,Y,Z Vertex 1 {m}
  2.8421709430404e-14, -2.66453525910038e-15, 0, !- X,Y,Z Vertex 2 {m}
  4.57200000000003, -2.66453525910038e-15, 0, !- X,Y,Z Vertex 3 {m}
  4.57200000000003, -2.66453525910038e-15, 3.9624; !- X,Y,Z Vertex 4 {m}

OS:Surface,
  {4911af94-acbb-4c5c-b150-6c98a0a2bdea}, !- Handle
  Surface 6,                              !- Name
  RoofCeiling,                            !- Surface Type
  ,                                       !- Construction Name
  {23f4e091-465b-424f-b6b5-edc7684cf223}, !- Space Name
  Surface,                                !- Outside Boundary Condition
  {5cfa223c-4a32-4da4-9a58-7407939e2908}, !- Outside Boundary Condition Object
  NoSun,                                  !- Sun Exposure
  NoWind,                                 !- Wind Exposure
  ,                                       !- View Factor to Ground
  ,                                       !- Number of Vertices
  4.57200000000003, -2.66453525910038e-15, 3.9624, !- X,Y,Z Vertex 1 {m}
  4.57200000000003, 4.572, 3.9624,        !- X,Y,Z Vertex 2 {m}
  2.8421709430404e-14, 4.572, 3.9624,     !- X,Y,Z Vertex 3 {m}
  2.8421709430404e-14, -2.66453525910038e-15, 3.9624; !- X,Y,Z Vertex 4 {m}

OS:ThermalZone,
  {e141c48c-8563-4ead-927b-4afb272d0805}, !- Handle
  Zone PrimarySchool Office A end_a - Story Ground, !- Name
  1,                                      !- Multiplier
  ,                                       !- Ceiling Height {m}
  ,                                       !- Volume {m3}
  ,                                       !- Floor Area {m2}
  ,                                       !- Zone Inside Convection Algorithm
  ,                                       !- Zone Outside Convection Algorithm
  ,                                       !- Zone Conditioning Equipment List Name
  {f61aacdf-6000-4c7b-a6e8-ad8b9fe91c3a}, !- Zone Air Inlet Port List
  {2170fc7b-1d42-41c8-992c-11c48e66c4ac}, !- Zone Air Exhaust Port List
  {f2b37cfe-1739-4da9-b6a9-3d4ba08a14e0}, !- Zone Air Node Name
  {6c69a450-5b1d-434d-885a-5c71f6cc3a97}, !- Zone Return Air Port List
  ,                                       !- Primary Daylighting Control Name
  ,                                       !- Fraction of Zone Controlled by Primary Daylighting Control
  ,                                       !- Secondary Daylighting Control Name
  ,                                       !- Fraction of Zone Controlled by Secondary Daylighting Control
  ,                                       !- Illuminance Map Name
  ,                                       !- Group Rendering Name
  ,                                       !- Thermostat Name
  No;                                     !- Use Ideal Air Loads

OS:Node,
  {6d24b683-b2a2-4c18-bbb2-ba92da53fbba}, !- Handle
  Node 1,                                 !- Name
  {f2b37cfe-1739-4da9-b6a9-3d4ba08a14e0}, !- Inlet Port
  ;                                       !- Outlet Port

OS:Connection,
  {f2b37cfe-1739-4da9-b6a9-3d4ba08a14e0}, !- Handle
  {2e1b5816-738a-44e1-970d-26e3719cb029}, !- Name
  {e141c48c-8563-4ead-927b-4afb272d0805}, !- Source Object
  11,                                     !- Outlet Port
  {6d24b683-b2a2-4c18-bbb2-ba92da53fbba}, !- Target Object
  2;                                      !- Inlet Port

OS:PortList,
  {f61aacdf-6000-4c7b-a6e8-ad8b9fe91c3a}, !- Handle
  {3f0c6db1-f9c3-4204-9275-ac5ba03671f3}, !- Name
  {e141c48c-8563-4ead-927b-4afb272d0805}; !- HVAC Component

OS:PortList,
  {2170fc7b-1d42-41c8-992c-11c48e66c4ac}, !- Handle
  {4536cd29-3a8b-4a67-9d00-bc945fd53310}, !- Name
  {e141c48c-8563-4ead-927b-4afb272d0805}; !- HVAC Component

OS:PortList,
  {6c69a450-5b1d-434d-885a-5c71f6cc3a97}, !- Handle
  {81994c99-9c42-4ad0-8453-aeb3c54cc3a5}, !- Name
  {e141c48c-8563-4ead-927b-4afb272d0805}; !- HVAC Component

OS:Sizing:Zone,
  {c40d920c-7d7c-4877-b396-d1b28a4e5348}, !- Handle
  {e141c48c-8563-4ead-927b-4afb272d0805}, !- Zone or ZoneList Name
  SupplyAirTemperature,                   !- Zone Cooling Design Supply Air Temperature Input Method
  14,                                     !- Zone Cooling Design Supply Air Temperature {C}
  11.11,                                  !- Zone Cooling Design Supply Air Temperature Difference {deltaC}
  SupplyAirTemperature,                   !- Zone Heating Design Supply Air Temperature Input Method
  40,                                     !- Zone Heating Design Supply Air Temperature {C}
  11.11,                                  !- Zone Heating Design Supply Air Temperature Difference {deltaC}
  0.0085,                                 !- Zone Cooling Design Supply Air Humidity Ratio {kg-H2O/kg-air}
  0.008,                                  !- Zone Heating Design Supply Air Humidity Ratio {kg-H2O/kg-air}
  ,                                       !- Zone Heating Sizing Factor
  ,                                       !- Zone Cooling Sizing Factor
  DesignDay,                              !- Cooling Design Air Flow Method
  ,                                       !- Cooling Design Air Flow Rate {m3/s}
  ,                                       !- Cooling Minimum Air Flow per Zone Floor Area {m3/s-m2}
  ,                                       !- Cooling Minimum Air Flow {m3/s}
  ,                                       !- Cooling Minimum Air Flow Fraction
  DesignDay,                              !- Heating Design Air Flow Method
  ,                                       !- Heating Design Air Flow Rate {m3/s}
  ,                                       !- Heating Maximum Air Flow per Zone Floor Area {m3/s-m2}
  ,                                       !- Heating Maximum Air Flow {m3/s}
  ,                                       !- Heating Maximum Air Flow Fraction
  ,                                       !- Design Zone Air Distribution Effectiveness in Cooling Mode
  ,                                       !- Design Zone Air Distribution Effectiveness in Heating Mode
  No,                                     !- Account for Dedicated Outdoor Air System
  NeutralSupplyAir,                       !- Dedicated Outdoor Air System Control Strategy
  autosize,                               !- Dedicated Outdoor Air Low Setpoint Temperature for Design {C}
  autosize;                               !- Dedicated Outdoor Air High Setpoint Temperature for Design {C}

OS:ZoneHVAC:EquipmentList,
  {e6dfb817-5dfd-4b1d-bd8b-5464e22320be}, !- Handle
  Zone HVAC Equipment List 1,             !- Name
  {e141c48c-8563-4ead-927b-4afb272d0805}; !- Thermal Zone

OS:Space,
  {29296c54-d1b9-466d-82bc-19d979eebf2b}, !- Handle
  PrimarySchool Office B end_a - Story Ground, !- Name
  {ca92056a-ceba-4289-a8cd-5d7fb070de84}, !- Space Type Name
  ,                                       !- Default Construction Set Name
  ,                                       !- Default Schedule Set Name
  -0,                                     !- Direction of Relative North {deg}
  -97.5836133784766,                      !- X Origin {m}
  -3.36162710394119,                      !- Y Origin {m}
  0,                                      !- Z Origin {m}
  {cf9426b0-d3b2-421e-8380-62a672d6db0d}, !- Building Story Name
  {ab6bcb4e-b3f3-4399-9f8f-fa2ca1ab428e}; !- Thermal Zone Name

OS:Surface,
  {e6448246-55bf-4cff-a0b7-742f7431271e}, !- Handle
  Surface 7,                              !- Name
  Floor,                                  !- Surface Type
  ,                                       !- Construction Name
  {29296c54-d1b9-466d-82bc-19d979eebf2b}, !- Space Name
  Ground,                                 !- Outside Boundary Condition
  ,                                       !- Outside Boundary Condition Object
  NoSun,                                  !- Sun Exposure
  NoWind,                                 !- Wind Exposure
  ,                                       !- View Factor to Ground
  ,                                       !- Number of Vertices
  2.8421709430404e-14, -2.22044604925031e-15, 0, !- X,Y,Z Vertex 1 {m}
  2.8421709430404e-14, 6.72325420788238, 0, !- X,Y,Z Vertex 2 {m}
  4.57200000000003, 6.72325420788238, 0,  !- X,Y,Z Vertex 3 {m}
  4.57200000000003, -2.22044604925031e-15, 0; !- X,Y,Z Vertex 4 {m}

OS:Surface,
  {802173a9-9316-4044-bfad-62349d501d00}, !- Handle
  Surface 8,                              !- Name
  Wall,                                   !- Surface Type
  ,                                       !- Construction Name
  {29296c54-d1b9-466d-82bc-19d979eebf2b}, !- Space Name
  Outdoors,                               !- Outside Boundary Condition
  ,                                       !- Outside Boundary Condition Object
  SunExposed,                             !- Sun Exposure
  WindExposed,                            !- Wind Exposure
  ,                                       !- View Factor to Ground
  ,                                       !- Number of Vertices
  2.8421709430404e-14, 6.72325420788238, 3.9624, !- X,Y,Z Vertex 1 {m}
  2.8421709430404e-14, 6.72325420788238, 0, !- X,Y,Z Vertex 2 {m}
  2.8421709430404e-14, -2.22044604925031e-15, 0, !- X,Y,Z Vertex 3 {m}
  2.8421709430404e-14, -2.22044604925031e-15, 3.9624; !- X,Y,Z Vertex 4 {m}

OS:Surface,
  {5907f5d8-5a65-48aa-a8ed-b1d3a5e941d2}, !- Handle
  Surface 9,                              !- Name
  Wall,                                   !- Surface Type
  ,                                       !- Construction Name
  {29296c54-d1b9-466d-82bc-19d979eebf2b}, !- Space Name
  Surface,                                !- Outside Boundary Condition
  {28b87f5d-6b31-4ecd-88d5-f4f5e24a9465}, !- Outside Boundary Condition Object
  NoSun,                                  !- Sun Exposure
  NoWind,                                 !- Wind Exposure
  ,                                       !- View Factor to Ground
  ,                                       !- Number of Vertices
  4.57200000000003, 6.72325420788238, 3.9624, !- X,Y,Z Vertex 1 {m}
  4.57200000000003, 6.72325420788238, 0,  !- X,Y,Z Vertex 2 {m}
  2.8421709430404e-14, 6.72325420788238, 0, !- X,Y,Z Vertex 3 {m}
  2.8421709430404e-14, 6.72325420788238, 3.9624; !- X,Y,Z Vertex 4 {m}

OS:Surface,
  {1d748be5-00fc-40d1-bfe8-c4bb5d664321}, !- Handle
  Surface 10,                             !- Name
  Wall,                                   !- Surface Type
  ,                                       !- Construction Name
  {29296c54-d1b9-466d-82bc-19d979eebf2b}, !- Space Name
  Surface,                                !- Outside Boundary Condition
  {269d3451-8bec-40a7-bd2f-44084360e685}, !- Outside Boundary Condition Object
  NoSun,                                  !- Sun Exposure
  NoWind,                                 !- Wind Exposure
  ,                                       !- View Factor to Ground
  ,                                       !- Number of Vertices
  4.57200000000003, -2.22044604925031e-15, 3.9624, !- X,Y,Z Vertex 1 {m}
  4.57200000000003, -2.22044604925031e-15, 0, !- X,Y,Z Vertex 2 {m}
  4.57200000000003, 6.72325420788238, 0,  !- X,Y,Z Vertex 3 {m}
  4.57200000000003, 6.72325420788238, 3.9624; !- X,Y,Z Vertex 4 {m}

OS:Surface,
  {78c68fd0-1649-4075-95da-1da1a8d72a9f}, !- Handle
  Surface 11,                             !- Name
  Wall,                                   !- Surface Type
  ,                                       !- Construction Name
  {29296c54-d1b9-466d-82bc-19d979eebf2b}, !- Space Name
  Surface,                                !- Outside Boundary Condition
  {9358efd5-9a15-411d-a415-89be81cb7793}, !- Outside Boundary Condition Object
  NoSun,                                  !- Sun Exposure
  NoWind,                                 !- Wind Exposure
  ,                                       !- View Factor to Ground
  ,                                       !- Number of Vertices
  2.8421709430404e-14, -2.22044604925031e-15, 3.9624, !- X,Y,Z Vertex 1 {m}
  2.8421709430404e-14, -2.22044604925031e-15, 0, !- X,Y,Z Vertex 2 {m}
  4.57200000000003, -2.22044604925031e-15, 0, !- X,Y,Z Vertex 3 {m}
  4.57200000000003, -2.22044604925031e-15, 3.9624; !- X,Y,Z Vertex 4 {m}

OS:Surface,
  {94cfd774-7e7e-45d9-90b9-391cb1ceca3a}, !- Handle
  Surface 12,                             !- Name
  RoofCeiling,                            !- Surface Type
  ,                                       !- Construction Name
  {29296c54-d1b9-466d-82bc-19d979eebf2b}, !- Space Name
  Surface,                                !- Outside Boundary Condition
  {dbf84d1a-831d-41af-b308-a4ee8582812e}, !- Outside Boundary Condition Object
  NoSun,                                  !- Sun Exposure
  NoWind,                                 !- Wind Exposure
  ,                                       !- View Factor to Ground
  ,                                       !- Number of Vertices
  4.57200000000003, -2.22044604925031e-15, 3.9624, !- X,Y,Z Vertex 1 {m}
  4.57200000000003, 6.72325420788238, 3.9624, !- X,Y,Z Vertex 2 {m}
  2.8421709430404e-14, 6.72325420788238, 3.9624, !- X,Y,Z Vertex 3 {m}
  2.8421709430404e-14, -2.22044604925031e-15, 3.9624; !- X,Y,Z Vertex 4 {m}

OS:ThermalZone,
  {ab6bcb4e-b3f3-4399-9f8f-fa2ca1ab428e}, !- Handle
  Zone PrimarySchool Office B end_a - Story Ground, !- Name
  1,                                      !- Multiplier
  ,                                       !- Ceiling Height {m}
  ,                                       !- Volume {m3}
  ,                                       !- Floor Area {m2}
  ,                                       !- Zone Inside Convection Algorithm
  ,                                       !- Zone Outside Convection Algorithm
  ,                                       !- Zone Conditioning Equipment List Name
  {2fe9ba6c-ac30-4a6b-859f-e7e0cf30f273}, !- Zone Air Inlet Port List