
OS:Version,
  {f863cb35-a0a9-4cc1-9fd3-7c19e1008f98}, !- Handle
  2.8.0;                                  !- Version Identifier

OS:SpaceType,
  {830b1e76-8656-4dd4-af15-a68910501e95}, !- Handle
  Office WholeBuilding - Md Office,       !- Name
  ,                                       !- Default Construction Set Name
  ,                                       !- Default Schedule Set Name
  {3beb4a30-e0ef-4dfb-9f5d-08c2cf22fa02}, !- Group Rendering Name
  ,                                       !- Design Specification Outdoor Air Object Name
  ,                                       !- Standards Template
  Office,                                 !- Standards Building Type
  WholeBuilding - Md Office;              !- Standards Space Type

OS:Rendering:Color,
  {3beb4a30-e0ef-4dfb-9f5d-08c2cf22fa02}, !- Handle
  Office WholeBuilding - Md Office,       !- Name
  120,                                    !- Rendering Red Value
  230,                                    !- Rendering Green Value
  199;                                    !- Rendering Blue Value

OS:Building,
  {bb4fd928-c7ee-4c9b-9919-fa1342ef1e3b}, !- Handle
  90.1-2004|MediumOffice,                 !- Name
  ,                                       !- Building Sector Type
  ,                                       !- North Axis {deg}
  ,                                       !- Nominal Floor to Floor Height {m}
  {830b1e76-8656-4dd4-af15-a68910501e95}, !- Space Type Name
  ,                                       !- Default Construction Set Name
  ;                                       !- Default Schedule Set Name

OS:Site,
  {05e0bd02-0cac-4831-ab6c-ba60768291ad}, !- Handle
  Site 1,                                 !- Name
  ,                                       !- Latitude {deg}
  ,                                       !- Longitude {deg}
  ,                                       !- Time Zone {hr}
  ,                                       !- Elevation {m}
  ;                                       !- Terrain

OS:BuildingStory,
  {004e631b-b673-44a2-844a-13fc41569257}, !- Handle
  Story B1,                               !- Name
  -3.9624,                                !- Nominal Z Coordinate {m}
  3.9624,                                 !- Nominal Floor to Floor Height {m}
  ,                                       !- Default Construction Set Name
  ,                                       !- Default Schedule Set Name
  ;                                       !- Group Rendering Name

OS:Space,
  {29ed55be-9f8a-4880-ae14-6236d401db56}, !- Handle
  West Perimeter Space - Story B1,        !- Name
  ,                                       !- Space Type Name
  ,                                       !- Default Construction Set Name
  ,                                       !- Default Schedule Set Name
  -0,                                     !- Direction of Relative North {deg}
  -14.1094983205337,                      !- X Origin {m}
  -9.40633221368912,                      !- Y Origin {m}
  -3.9624,                                !- Z Origin {m}
  {004e631b-b673-44a2-844a-13fc41569257}, !- Building Story Name
  {8e61f62b-b1cf-4eb1-86bd-9500f6220a4f}; !- Thermal Zone Name

OS:Surface,
  {51f28dbd-4038-433a-8e4d-c52d8f8a2fe4}, !- Handle
  Surface 1,                              !- Name
  Floor,                                  !- Surface Type
  ,                                       !- Construction Name
  {29ed55be-9f8a-4880-ae14-6236d401db56}, !- Space Name
  Ground,                                 !- Outside Boundary Condition
  ,                                       !- Outside Boundary Condition Object
  NoSun,                                  !- Sun Exposure
  NoWind,                                 !- Wind Exposure
  ,                                       !- View Factor to Ground
  ,                                       !- Number of Vertices
  -1.24344978758018e-14, 1.77635683940025e-15, 0, !- X,Y,Z Vertex 1 {m}
  -1.24344978758018e-14, 18.8126644273782, 0, !- X,Y,Z Vertex 2 {m}
  4.572, 14.2406644273782, 0,             !- X,Y,Z Vertex 3 {m}
  4.572, 4.572, 0;                        !- X,Y,Z Vertex 4 {m}

OS:Surface,
  {f6ec9a7b-8a3b-4e60-9dc0-7ac030fecf90}, !- Handle
  Surface 2,                              !- Name
  Wall,                                   !- Surface Type
  ,                                       !- Construction Name
  {29ed55be-9f8a-4880-ae14-6236d401db56}, !- Space Name
  Ground,                                 !- Outside Boundary Condition
  ,                                       !- Outside Boundary Condition Object
  NoSun,                                  !- Sun Exposure
  NoWind,                                 !- Wind Exposure
  ,                                       !- View Factor to Ground
  ,                                       !- Number of Vertices
  -1.24344978758018e-14, 18.8126644273782, 3.9624, !- X,Y,Z Vertex 1 {m}
  -1.24344978758018e-14, 18.8126644273782, 0, !- X,Y,Z Vertex 2 {m}
  -1.24344978758018e-14, 1.77635683940025e-15, 0, !- X,Y,Z Vertex 3 {m}
  -1.24344978758018e-14, 1.77635683940025e-15, 3.9624; !- X,Y,Z Vertex 4 {m}

OS:Surface,
  {735d3ec7-0655-458b-827f-f41acf72484f}, !- Handle
  Surface 3,                              !- Name
  Wall,                                   !- Surface Type
  ,                                       !- Construction Name
  {29ed55be-9f8a-4880-ae14-6236d401db56}, !- Space Name
  Surface,                                !- Outside Boundary Condition
  {52880297-4e91-411d-94a3-306d5c13619e}, !- Outside Boundary Condition Object
  NoSun,                                  !- Sun Exposure
  NoWind,                                 !- Wind Exposure
  ,                                       !- View Factor to Ground
  ,                                       !- Number of Vertices
  4.572, 14.2406644273782, 3.9624,        !- X,Y,Z Vertex 1 {m}
  4.572, 14.2406644273782, 0,             !- X,Y,Z Vertex 2 {m}
  -1.24344978758018e-14, 18.8126644273782, 0, !- X,Y,Z Vertex 3 {m}
  -1.24344978758018e-14, 18.8126644273782, 3.9624; !- X,Y,Z Vertex 4 {m}

OS:Surface,
  {5833d995-72c5-488d-b7c8-69d0146336f5}, !- Handle
  Surface 4,                              !- Name
  Wall,                                   !- Surface Type
  ,                                       !- Construction Name
  {29ed55be-9f8a-4880-ae14-6236d401db56}, !- Space Name
  Surface,                                !- Outside Boundary Condition
  {f2b0e5a9-bd23-4863-a22f-62d2b4b95efc}, !- Outside Boundary Condition Object
  NoSun,                                  !- Sun Exposure
  NoWind,                                 !- Wind Exposure
  ,                                       !- View Factor to Ground
  ,                                       !- Number of Vertices
  4.572, 4.572, 3.9624,                   !- X,Y,Z Vertex 1 {m}
  4.572, 4.572, 0,                        !- X,Y,Z Vertex 2 {m}
  4.572, 14.2406644273782, 0,             !- X,Y,Z Vertex 3 {m}
  4.572, 14.2406644273782, 3.9624;        !- X,Y,Z Vertex 4 {m}

OS:Surface,
  {f8ee1509-080b-458a-a6c0-2d09ca301e25}, !- Handle
  Surface 5,                              !- Name
  Wall,                                   !- Surface Type
  ,                                       !- Construction Name
  {29ed55be-9f8a-4880-ae14-6236d401db56}, !- Space Name
  Surface,                                !- Outside Boundary Condition
  {99b1661e-6b6f-465a-becf-4cb7b4f6efcc}, !- Outside Boundary Condition Object
  NoSun,                                  !- Sun Exposure
  NoWind,                                 !- Wind Exposure
  ,                                       !- View Factor to Ground
  ,                                       !- Number of Vertices
  -1.24344978758018e-14, 1.77635683940025e-15, 3.9624, !- X,Y,Z Vertex 1 {m}
  -1.24344978758018e-14, 1.77635683940025e-15, 0, !- X,Y,Z Vertex 2 {m}
  4.572, 4.572, 0,                        !- X,Y,Z Vertex 3 {m}
  4.572, 4.572, 3.9624;                   !- X,Y,Z Vertex 4 {m}

OS:Surface,
  {50a422ca-3585-41f2-b697-5ac0ebcc64e6}, !- Handle
  Surface 6,                              !- Name
  RoofCeiling,                            !- Surface Type
  ,                                       !- Construction Name
  {29ed55be-9f8a-4880-ae14-6236d401db56}, !- Space Name
  Surface,                                !- Outside Boundary Condition
  {ef9553a6-6e82-4a0c-b003-51b0f9e120c8}, !- Outside Boundary Condition Object
  NoSun,                                  !- Sun Exposure
  NoWind,                                 !- Wind Exposure
  ,                                       !- View Factor to Ground
  ,                                       !- Number of Vertices
  4.572, 4.572, 3.9624,                   !- X,Y,Z Vertex 1 {m}
  4.572, 14.2406644273782, 3.9624,        !- X,Y,Z Vertex 2 {m}
  -1.24344978758018e-14, 18.8126644273782, 3.9624, !- X,Y,Z Vertex 3 {m}
  -1.24344978758018e-14, 1.77635683940025e-15, 3.9624; !- X,Y,Z Vertex 4 {m}

OS:ThermalZone,
  {8e61f62b-b1cf-4eb1-86bd-9500f6220a4f}, !- Handle
  Zone West Perimeter Space - Story B1,   !- Name
  1,                                      !- Multiplier
  ,                                       !- Ceiling Height {m}
  ,                                       !- Volume {m3}
  ,                                       !- Floor Area {m2}
  ,                                       !- Zone Inside Convection Algorithm
  ,                                       !- Zone Outside Convection Algorithm
  ,                                       !- Zone Conditioning Equipment List Name
  {ea61d6f7-9b0c-4710-be4e-0f76d8babd9e}, !- Zone Air Inlet Port List
  {4bd1e959-4d7b-4fcc-b0b7-16fd13db44a9}, !- Zone Air Exhaust Port List
  {26f4a1f9-0d7e-4729-abbd-6ed51b7d89e5}, !- Zone Air Node Name
  {49047562-2297-4d8d-b7d2-26b2e7a13d31}, !- Zone Return Air Port List
  ,                                       !- Primary Daylighting Control Name
  ,                                       !- Fraction of Zone Controlled by Primary Daylighting Control
  ,                                       !- Secondary Daylighting Control Name
  ,                                       !- Fraction of Zone Controlled by Secondary Daylighting Control
  ,                                       !- Illuminance Map Name
  ,                                       !- Group Rendering Name
  ,                                       !- Thermostat Name
  No;                                     !- Use Ideal Air Loads

OS:Node,
  {1861060d-60c8-4f48-94ac-70ead885c06e}, !- Handle
  Node 1,                                 !- Name
  {26f4a1f9-0d7e-4729-abbd-6ed51b7d89e5}, !- Inlet Port
  ;                                       !- Outlet Port

OS:Connection,
  {26f4a1f9-0d7e-4729-abbd-6ed51b7d89e5}, !- Handle
  {1f1b3c2b-1abd-447a-8967-3a730ba8c84f}, !- Name
  {8e61f62b-b1cf-4eb1-86bd-9500f6220a4f}, !- Source Object
  11,                                     !- Outlet Port
  {1861060d-60c8-4f48-94ac-70ead885c06e}, !- Target Object
  2;                                      !- Inlet Port

OS:PortList,
  {ea61d6f7-9b0c-4710-be4e-0f76d8babd9e}, !- Handle
  {fd135d19-3582-46b5-8c3e-c207ab1e3955}, !- Name
  {8e61f62b-b1cf-4eb1-86bd-9500f6220a4f}; !- HVAC Component

OS:PortList,
  {4bd1e959-4d7b-4fcc-b0b7-16fd13db44a9}, !- Handle
  {28886b32-b183-412f-a047-47c3c1c2df89}, !- Name
  {8e61f62b-b1cf-4eb1-86bd-9500f6220a4f}; !- HVAC Component

OS:PortList,
  {49047562-2297-4d8d-b7d2-26b2e7a13d31}, !- Handle
  {1694bb1a-4106-4e27-8e99-55e0b08a1b94}, !- Name
  {8e61f62b-b1cf-4eb1-86bd-9500f6220a4f}; !- HVAC Component

OS:Sizing:Zone,
  {e0e81f3f-fd0e-46d3-a275-3d1eaceeb04f}, !- Handle
  {8e61f62b-b1cf-4eb1-86bd-9500f6220a4f}, !- Zone or ZoneList Name
  SupplyAirTemperature,                   !- Zone Cooling Design Supply Air Temperature Input Method
  14,                                     !- Zone Cooling Design Supply Air Temperature {C}
  11.11,                                  !- Zone Cooling Design Supply Air Temperature Difference {deltaC}
  SupplyAirTemperature,                   !- Zone Heating Design Supply Air Temperature Input Method
  40,                                     !- Zone Heating Design Supply Air Temperature {C}
  11.11,                                  !- Zone Heating Design Supply Air Temperature Difference {deltaC}
  0.0085,                                 !- Zone Cooling Design Supply Air Humidity Ratio {kg-H2O/kg-air}
  0.008,                                  !- Zone Heating Design Supply Air Humidity Ratio {kg-H2O/kg-air}
  ,                                       !- Zone Heating Sizing Factor
  ,                                       !- Zone Cooling Sizing Factor
  DesignDay,                              !- Cooling Design Air Flow Method
  ,                                       !- Cooling Design Air Flow Rate {m3/s}
  ,                                       !- Cooling Minimum Air Flow per Zone Floor Area {m3/s-m2}
  ,                                       !- Cooling Minimum Air Flow {m3/s}
  ,                                       !- Cooling Minimum Air Flow Fraction
  DesignDay,                              !- Heating Design Air Flow Method
  ,                                       !- Heating Design Air Flow Rate {m3/s}
  ,                                       !- Heating Maximum Air Flow per Zone Floor Area {m3/s-m2}
  ,                                       !- Heating Maximum Air Flow {m3/s}
  ,                                       !- Heating Maximum Air Flow Fraction
  ,                                       !- Design Zone Air Distribution Effectiveness in Cooling Mode
  ,                                       !- Design Zone Air Distribution Effectiveness in Heating Mode
  No,                                     !- Account for Dedicated Outdoor Air System
  NeutralSupplyAir,                       !- Dedicated Outdoor Air System Control Strategy
  autosize,                               !- Dedicated Outdoor Air Low Setpoint Temperature for Design {C}
  autosize;                               !- Dedicated Outdoor Air High Setpoint Temperature for Design {C}

OS:ZoneHVAC:EquipmentList,
  {af2019c1-b689-40fe-87b7-eefaa87d0851}, !- Handle
  Zone HVAC Equipment List 1,             !- Name
  {8e61f62b-b1cf-4eb1-86bd-9500f6220a4f}; !- Thermal Zone

OS:Space,
  {0ee99a87-9a73-4f0f-aabd-517a3496f04d}, !- Handle
  North Perimeter Space - Story B1,       !- Name
  ,                                       !- Space Type Name
  ,                                       !- Default Construction Set Name
  ,                                       !- Default Schedule Set Name
  -0,                                     !- Direction of Relative North {deg}
  -14.1094983205337,                      !- X Origin {m}
  9.40633221368912,                       !- Y Origin {m}
  -3.9624,                                !- Z Origin {m}
  {004e631b-b673-44a2-844a-13fc41569257}, !- Building Story Name
  {fe875cda-a12d-4658-bcdb-00d6775cf7da}; !- Thermal Zone Name

OS:Surface,
  {69b6ec4c-def6-4ecb-bde8-5fb8ac92a997}, !- Handle
  Surface 7,                              !- Name
  Floor,                                  !- Surface Type
  ,                                       !- Construction Name
  {0ee99a87-9a73-4f0f-aabd-517a3496f04d}, !- Space Name
  Ground,                                 !- Outside Boundary Condition
  ,                                       !- Outside Boundary Condition Object
  NoSun,                                  !- Sun Exposure
  NoWind,                                 !- Wind Exposure
  ,                                       !- View Factor to Ground
  ,                                       !- Number of Vertices
  -1.24344978758018e-14, -1.77635683940025e-15, 0, !- X,Y,Z Vertex 1 {m}
  28.2189966410674, -1.77635683940025e-15, 0, !- X,Y,Z Vertex 2 {m}
  23.6469966410674, -4.572, 0,            !- X,Y,Z Vertex 3 {m}
  4.572, -4.572, 0;                       !- X,Y,Z Vertex 4 {m}

OS:Surface,
  {d00b0706-8ee0-4505-8790-3c47ee88c27a}, !- Handle
  Surface 8,                              !- Name
  Wall,                                   !- Surface Type
  ,                                       !- Construction Name
  {0ee99a87-9a73-4f0f-aabd-517a3496f04d}, !- Space Name
  Ground,                                 !- Outside Boundary Condition
  ,                                       !- Outside Boundary Condition Object
  NoSun,                                  !- Sun Exposure
  NoWind,                                 !- Wind Exposure
  ,                                       !- View Factor to Ground
  ,                                       !- Number of Vertices
  28.2189966410674, -1.77635683940025e-15, 3.9624, !- X,Y,Z Vertex 1 {m}
  28.2189966410674, -1.77635683940025e-15, 0, !- X,Y,Z Vertex 2 {m}
  -1.24344978758018e-14, -1.77635683940025e-15, 0, !- X,Y,Z Vertex 3 {m}
  -1.24344978758018e-14, -1.77635683940025e-15, 3.9624; !- X,Y,Z Vertex 4 {m}

OS:Surface,
  {8b49a1f4-63ff-493c-b5f6-687fce3cce2d}, !- Handle
  Surface 9,                              !- Name
  Wall,                                   !- Surface Type
  ,                                       !- Construction Name
  {0ee99a87-9a73-4f0f-aabd-517a3496f04d}, !- Space Name
  Surface,                                !- Outside Boundary Condition
  {ddae6aa1-95e4-441e-8788-b81e4593c442}, !- Outside Boundary Condition Object
  NoSun,                                  !- Sun Exposure
  NoWind,                                 !- Wind Exposure
  ,                                       !- View Factor to Ground
  ,                                       !- Number of Vertices
  23.6469966410674, -4.572, 3.9624,       !- X,Y,Z Vertex 1 {m}
  23.6469966410674, -4.572, 0,            !- X,Y,Z Vertex 2 {m}
  28.2189966410674, -1.77635683940025e-15, 0, !- X,Y,Z Vertex 3 {m}
  28.2189966410674, -1.77635683940025e-15, 3.9624; !- X,Y,Z Vertex 4 {m}

OS:Surface,
  {717684f4-921c-465f-9547-3b86926a1b3b}, !- Handle
  Surface 10,                             !- Name
  Wall,                                   !- Surface Type
  ,                                       !- Construction Name
  {0ee99a87-9a73-4f0f-aabd-517a3496f04d}, !- Space Name
  Surface,                                !- Outside Boundary Condition
  {a822a028-ffa4-47e2-b4cf-43bc4989a38e}, !- Outside Boundary Condition Object
  NoSun,                                  !- Sun Exposure
  NoWind,                                 !- Wind Exposure
  ,                                       !- View Factor to Ground
  ,                                       !- Number of Vertices
  4.572, -4.572, 3.9624,                  !- X,Y,Z Vertex 1 {m}
  4.572, -4.572, 0,                       !- X,Y,Z Vertex 2 {m}
  23.6469966410674, -4.572, 0,            !- X,Y,Z Vertex 3 {m}
  23.6469966410674, -4.572, 3.9624;       !- X,Y,Z Vertex 4 {m}

OS:Surface,
  {52880297-4e91-411d-94a3-306d5c13619e}, !- Handle
  Surface 11,                             !- Name
  Wall,                                   !- Surface Type
  ,                                       !- Construction Name
  {0ee99a87-9a73-4f0f-aabd-517a3496f04d}, !- Space Name
  Surface,                                !- Outside Boundary Condition
  {735d3ec7-0655-458b-827f-f41acf72484f}, !- Outside Boundary Condition Object
  NoSun,                                  !- Sun Exposure
  NoWind,                                 !- Wind Exposure
  ,                                       !- View Factor to Ground
  ,                                       !- Number of Vertices
  -1.24344978758018e-14, -1.77635683940025e-15, 3.9624, !- X,Y,Z Vertex 1 {m}
  -1.24344978758018e-14, -1.77635683940025e-15, 0, !- X,Y,Z Vertex 2 {m}
  4.572, -4.572, 0,                       !- X,Y,Z Vertex 3 {m}
  4.572, -4.572, 3.9624;                  !- X,Y,Z Vertex 4 {m}

OS:Surface,
  {d71c49ee-ed78-4afe-b925-72b440e148e4}, !- Handle
  Surface 12,                             !- Name
  RoofCeiling,                            !- Surface Type
  ,                                       !- Construction Name
  {0ee99a87-9a73-4f0f-aabd-517a3496f04d}, !- Space Name
  Surface,                                !- Outside Boundary Condition
  {f5fbe599-526b-4ad2-9ecb-f4e58e87e706}, !- Outside Boundary Condition Object
  NoSun,                                  !- Sun Exposure
  NoWind,                                 !- Wind Exposure
  ,                                       !- View Factor to Ground
  ,                                       !- Number of Vertices
  4.572, -4.572, 3.9624,                  !- X,Y,Z Vertex 1 {m}
  23.6469966410674, -4.572, 3.9624,       !- X,Y,Z Vertex 2 {m}
  28.2189966410674, -1.77635683940025e-15, 3.9624, !- X,Y,Z Vertex 3 {m}
  -1.24344978758018e-14, -1.77635683940025e-15, 3.9624; !- X,Y,Z Vertex 4 {m}

OS:ThermalZone,
  {fe875cda-a12d-4658-bcdb-00d6775cf7da}, !- Handle
  Zone North Perimeter Space - Story B1,  !- Name
  1,                                      !- Multiplier
  ,                                       !- Ceiling Height {m}
  ,                                       !- Volume {m3}
  ,                                       !- Floor Area {m2}
  ,                                       !- Zone Inside Convection Algorithm
  ,                                       !- Zone Outside Convection Algorithm
  ,                                       !- Zone Conditioning Equipment List Name
  {9a642c6d-0833-41a2-9674-19eb0c2ba9db}, !- Zone Air Inlet Port List
  {4300f05e-4689-4a39-bddb-c428e8d10fb4}, !- Zone Air Exhaust Port List
  {852ab98e-cfa4-426d-aef4-6fa8d302ef15}, !- Zone Air Node Name
  {8aa549bc-1c42-442c-a01f-9200bd2db0f1}, !- Zone Return Air Port List
  ,                                       !- Primary Daylighting Control Name
  ,                                       !- Fraction of Zone Controlled by Primary Daylighting Control
  ,                                       !- Secondary Daylighting Control Name
  ,                                       !- Fraction of Zone Controlled by Secondary Daylighting Control
  ,                                       !- Illuminance Map Name
  ,                                       !- Group Rendering Name
  ,                                       !- Thermostat Name
  No;                                     !- Use Ideal Air Loads

OS:Node,
  {4af34053-8cc4-4a26-b2ea-3a9d6360d267}, !- Handle
  Node 2,                                 !- Name
  {852ab98e-cfa4-426d-aef4-6fa8d302ef15}, !- Inlet Port
  ;                                       !- Outlet Port

OS:Connection,
  {852ab98e-cfa4-426d-aef4-6fa8d302ef15}, !- Handle
  {8e326058-df32-4e96-857e-b3afd147a432}, !- Name
  {fe875cda-a12d-4658-bcdb-00d6775cf7da}, !- Source Object
  11,                                     !- Outlet Port
  {4af34053-8cc4-4a26-b2ea-3a9d6360d267}, !- Target Object
  2;                                      !- Inlet Port

OS:PortList,
  {9a642c6d-0833-41a2-9674-19eb0c2ba9db}, !- Handle
  {288d75b4-37ec-4884-92c0-d00efafc16c1}, !- Name
  {fe875cda-a12d-4658-bcdb-00d6775cf7da}; !- HVAC Component

OS:PortList,
  {4300f05e-4689-4a39-bddb-c428e8d10fb4}, !- Handle
  {3de815e5-2561-4605-9693-5606bc7670bc}, !- Name
  {fe875cda-a12d-4658-bcdb-00d6775cf7da}; !- HVAC Component

OS:PortList,
  {8aa549bc-1c42-442c-a01f-9200bd2db0f1}, !- Handle
  {0be71f08-bf80-4a01-ae43-52e519bdfba5}, !- Name
  {fe875cda-a12d-4658-bcdb-00d6775cf7da}; !- HVAC Component

OS:Sizing:Zone,
  {30b46789-7a59-40ed-80c4-b723598de8ca}, !- Handle
  {fe875cda-a12d-4658-bcdb-00d6775cf7da}, !- Zone or ZoneList Name
  SupplyAirTemperature,                   !- Zone Cooling Design Supply Air Temperature Input Method
  14,                                     !- Zone Cooling Design Supply Air Temperature {C}
  11.11,                                  !- Zone Cooling Design Supply Air Temperature Difference {deltaC}
  SupplyAirTemperature,                   !- Zone Heating Design Supply Air Temperature Input Method
  40,                                     !- Zone Heating Design Supply Air Temperature {C}
  11.11,                                  !- Zone Heating Design Supply Air Temperature Difference {deltaC}
  0.0085,                                 !- Zone Cooling Design Supply Air Humidity Ratio {kg-H2O/kg-air}
  0.008,                                  !- Zone Heating Design Supply Air Humidity Ratio {kg-H2O/kg-air}
  ,                                       !- Zone Heating Sizing Factor
  ,                                       !- Zone Cooling Sizing Factor
  DesignDay,                              !- Cooling Design Air Flow Method
  ,                                       !- Cooling Design Air Flow Rate {m3/s}
  ,                                       !- Cooling Minimum Air Flow per Zone Floor Area {m3/s-m2}
  ,                                       !- Cooling Minimum Air Flow {m3/s}
  ,                                       !- Cooling Minimum Air Flow Fraction
  DesignDay,                              !- Heating Design Air Flow Method
  ,                                       !- Heating Design Air Flow Rate {m3/s}
  ,                                       !- Heating Maximum Air Flow per Zone Floor Area {m3/s-m2}
  ,                                       !- Heating Maximum Air Flow {m3/s}
  ,                                       !- Heating Maximum Air Flow Fraction
  ,                                       !- Design Zone Air Distribution Effectiveness in Cooling Mode
  ,                                       !- Design Zone Air Distribution Effectiveness in Heating Mode
  No,                                     !- Account for Dedicated Outdoor Air System
  NeutralSupplyAir,                       !- Dedicated Outdoor Air System Control Strategy
  autosize,                               !- Dedicated Outdoor Air Low Setpoint Temperature for Design {C}
  autosize;                               !- Dedicated Outdoor Air High Setpoint Temperature for Design {C}

OS:ZoneHVAC:EquipmentList,
  {25a60396-9c92-4c3b-a743-c849ee037802}, !- Handle
  Zone HVAC Equipment List 2,             !- Name
  {fe875cda-a12d-4658-bcdb-00d6775cf7da}; !- Thermal Zone

OS:Space,
  {eb7b6013-14d3-45bd-aba4-e96aaaad0762}, !- Handle
  East Perimeter Space - Story B1,        !- Name
  ,                                       !- Space Type Name
  ,                                       !- Default Construction Set Name
  ,                                       !- Default Schedule Set Name
  -0,                                     !- Direction of Relative North {deg}
  14.1094983205337,                       !- X Origin {m}
  9.40633221368912,                       !- Y Origin {m}
  -3.9624,                                !- Z Origin {m}
  {004e631b-b673-44a2-844a-13fc41569257}, !- Building Story Name
  {0dfd353b-a4a4-4818-8663-44cb550b1e6d}; !- Thermal Zone Name

OS:Surface,
  {2164ebfa-c0b3-4d62-8098-ba6a3ada01da}, !- Handle
  Surface 13,                             !- Name
  Floor,                                  !- Surface Type
  ,                                       !- Construction Name
  {eb7b6013-14d3-45bd-aba4-e96aaaad0762}, !- Space Name
  Ground,                                 !- Outside Boundary Condition
  ,                                       !- Outside Boundary Condition Object
  NoSun,                                  !- Sun Exposure
  NoWind,                                 !- Wind Exposure
  ,                                       !- View Factor to Ground
  ,                                       !- Number of Vertices
  1.24344978758018e-14, -1.77635683940025e-15, 0, !- X,Y,Z Vertex 1 {m}
  1.24344978758018e-14, -18.8126644273782, 0, !- X,Y,Z Vertex 2 {m}
  -4.572, -14.2406644273782, 0,           !- X,Y,Z Vertex 3 {m}
  -4.572, -4.572, 0;                      !- X,Y,Z Vertex 4 {m}

OS:Surface,
  {85626e95-f15d-481a-91a8-e933808efd2c}, !- Handle
  Surface 14,                             !- Name
  Wall,                                   !- Surface Type
  ,                                       !- Construction Name
  {eb7b6013-14d3-45bd-aba4-e96aaaad0762}, !- Space Name
  Ground,                                 !- Outside Boundary Condition
  ,                                       !- Outside Boundary Condition Object
  NoSun,                                  !- Sun Exposure
  NoWind,                                 !- Wind Exposure
  ,                                       !- View Factor to Ground
  ,                                       !- Number of Vertices
  1.24344978758018e-14, -18.8126644273782, 3.9624, !- X,Y,Z Vertex 1 {m}
  1.24344978758018e-14, -18.8126644273782, 0, !- X,Y,Z Vertex 2 {m}
  1.24344978758018e-14, -1.77635683940025e-15, 0, !- X,Y,Z Vertex 3 {m}
  1.24344978758018e-14, -1.77635683940025e-15, 3.9624; !- X,Y,Z Vertex 4 {m}

OS:Surface,
  {14687094-328a-47f0-9ce5-bfe3e847e9f7}, !- Handle
  Surface 15,                             !- Name
  Wall,                                   !- Surface Type
  ,                                       !- Construction Name
  {eb7b6013-14d3-45bd-aba4-e96aaaad0762}, !- Space Name
  Surface,                                !- Outside Boundary Condition
  {2bbb475e-03f8-40ef-b5eb-7ba82cf8c5a2}, !- Outside Boundary Condition Object
  NoSun,                                  !- Sun Exposure
  NoWind,                                 !- Wind Exposure
  ,                                       !- View Factor to Ground
  ,                                       !- Number of Vertices
  -4.572, -14.2406644273782, 3.9624,      !- X,Y,Z Vertex 1 {m}
  -4.572, -14.2406644273782, 0,           !- X,Y,Z Vertex 2 {m}
  1.24344978758018e-14, -18.8126644273782, 0, !- X,Y,Z Vertex 3 {m}
  1.24344978758018e-14, -18.8126644273782, 3.9624; !- X,Y,Z Vertex 4 {m}

OS:Surface,
  {691a4d0b-ece7-4574-85d3-33cb29f8633e}, !- Handle
  Surface 16,                             !- Name
  Wall,                                   !- Surface Type
  ,                                       !- Construction Name
  {eb7b6013-14d3-45bd-aba4-e96aaaad0762}, !- Space Name