
OS:Version,
  {5621415d-2c79-4a8f-b65b-46aabe68f9e7}, !- Handle
  2.8.0;                                  !- Version Identifier

OS:SpaceType,
  {b2fee3d7-059e-4bab-89dd-a67ca6a5d2cb}, !- Handle
  Office WholeBuilding - Sm Office,       !- Name
  ,                                       !- Default Construction Set Name
  ,                                       !- Default Schedule Set Name
  {0679a72a-03c3-45ff-bca4-b12f0c78b6a0}, !- Group Rendering Name
  ,                                       !- Design Specification Outdoor Air Object Name
  ,                                       !- Standards Template
  Office,                                 !- Standards Building Type
  WholeBuilding - Sm Office;              !- Standards Space Type

OS:Rendering:Color,
  {0679a72a-03c3-45ff-bca4-b12f0c78b6a0}, !- Handle
  Office WholeBuilding - Sm Office,       !- Name
  120,                                    !- Rendering Red Value
  230,                                    !- Rendering Green Value
  199;                                    !- Rendering Blue Value

OS:Building,
  {6ba4e0cd-c583-4cf4-9650-91f537b39d05}, !- Handle
  90.1-2004|SmallOffice,                  !- Name
  ,                                       !- Building Sector Type
  ,                                       !- North Axis {deg}
  ,                                       !- Nominal Floor to Floor Height {m}
  ,                                       !- Space Type Name
  ,                                       !- Default Construction Set Name
  ;                                       !- Default Schedule Set Name

OS:Site,
  {de17684e-4686-47d2-b619-ce3a811073b8}, !- Handle
  Site 1,                                 !- Name
  ,                                       !- Latitude {deg}
  ,                                       !- Longitude {deg}
  ,                                       !- Time Zone {hr}
  ,                                       !- Elevation {m}
  ;                                       !- Terrain

OS:BuildingStory,
  {4e6de36e-ce74-4c8c-a733-39fcd4bc664c}, !- Handle
  Story Ground,                           !- Name
  0,                                      !- Nominal Z Coordinate {m}
  3.048,                                  !- Nominal Floor to Floor Height {m}
  ,                                       !- Default Construction Set Name
  ,                                       !- Default Schedule Set Name
  ;                                       !- Group Rendering Name

OS:Space,
  {aab2f3c9-ea21-4b31-841f-2790d28ccd1f}, !- Handle
  Office WholeBuilding - Sm Office A end_a - Story Ground, !- Name
  {b2fee3d7-059e-4bab-89dd-a67ca6a5d2cb}, !- Space Type Name
  ,                                       !- Default Construction Set Name
  ,                                       !- Default Schedule Set Name
  -0,                                     !- Direction of Relative North {deg}
  -18.6651118400078,                      !- X Origin {m}
  -12.4434078933385,                      !- Y Origin {m}
  0,                                      !- Z Origin {m}
  {4e6de36e-ce74-4c8c-a733-39fcd4bc664c}, !- Building Story Name
  {54d3f785-9b5a-4c4b-96f0-4a066fa8cfa7}; !- Thermal Zone Name

OS:Surface,
  {0e91d113-cfb3-40b2-a45a-48f9a3391509}, !- Handle
  Surface 1,                              !- Name
  Floor,                                  !- Surface Type
  ,                                       !- Construction Name
  {aab2f3c9-ea21-4b31-841f-2790d28ccd1f}, !- Space Name
  Ground,                                 !- Outside Boundary Condition
  ,                                       !- Outside Boundary Condition Object
  NoSun,                                  !- Sun Exposure
  NoWind,                                 !- Wind Exposure
  ,                                       !- View Factor to Ground
  ,                                       !- Number of Vertices
  1.77635683940025e-14, 4.44089209850063e-14, 0, !- X,Y,Z Vertex 1 {m}
  1.77635683940025e-14, 4.57200000000001, 0, !- X,Y,Z Vertex 2 {m}
  4.57200000000002, 4.57200000000001, 0,  !- X,Y,Z Vertex 3 {m}
  4.57200000000002, 4.44089209850063e-14, 0; !- X,Y,Z Vertex 4 {m}

OS:Surface,
  {c482c021-a192-4dd7-ac7e-874a80f47f87}, !- Handle
  Surface 2,                              !- Name
  Wall,                                   !- Surface Type
  ,                                       !- Construction Name
  {aab2f3c9-ea21-4b31-841f-2790d28ccd1f}, !- Space Name
  Outdoors,                               !- Outside Boundary Condition
  ,                                       !- Outside Boundary Condition Object
  SunExposed,                             !- Sun Exposure
  WindExposed,                            !- Wind Exposure
  ,                                       !- View Factor to Ground
  ,                                       !- Number of Vertices
  1.77635683940025e-14, 4.57200000000001, 3.048, !- X,Y,Z Vertex 1 {m}
  1.77635683940025e-14, 4.57200000000001, 0, !- X,Y,Z Vertex 2 {m}
  1.77635683940025e-14, 4.44089209850063e-14, 0, !- X,Y,Z Vertex 3 {m}
  1.77635683940025e-14, 4.44089209850063e-14, 3.048; !- X,Y,Z Vertex 4 {m}

OS:Surface,
  {2693336b-03f1-4c68-84d5-262b4eaf5faf}, !- Handle
  Surface 3,                              !- Name
  Wall,                                   !- Surface Type
  ,                                       !- Construction Name
  {aab2f3c9-ea21-4b31-841f-2790d28ccd1f}, !- Space Name
  Surface,                                !- Outside Boundary Condition
  {719a21ac-d92c-46bd-996d-bac2221abcdd}, !- Outside Boundary Condition Object
  NoSun,                                  !- Sun Exposure
  NoWind,                                 !- Wind Exposure
  ,                                       !- View Factor to Ground
  ,                                       !- Number of Vertices
  4.57200000000002, 4.57200000000001, 3.048, !- X,Y,Z Vertex 1 {m}
  4.57200000000002, 4.57200000000001, 0,  !- X,Y,Z Vertex 2 {m}
  1.77635683940025e-14, 4.57200000000001, 0, !- X,Y,Z Vertex 3 {m}
  1.77635683940025e-14, 4.57200000000001, 3.048; !- X,Y,Z Vertex 4 {m}

OS:Surface,
  {7a11eafa-d771-4603-807e-0d28c2456052}, !- Handle
  Surface 4,                              !- Name
  Wall,                                   !- Surface Type
  ,                                       !- Construction Name
  {aab2f3c9-ea21-4b31-841f-2790d28ccd1f}, !- Space Name
  Surface,                                !- Outside Boundary Condition
  {491e616c-93e5-4fa2-8208-3f72312a04ff}, !- Outside Boundary Condition Object
  NoSun,                                  !- Sun Exposure
  NoWind,                                 !- Wind Exposure
  ,                                       !- View Factor to Ground
  ,                                       !- Number of Vertices
  4.57200000000002, 4.44089209850063e-14, 3.048, !- X,Y,Z Vertex 1 {m}
  4.57200000000002, 4.44089209850063e-14, 0, !- X,Y,Z Vertex 2 {m}
  4.57200000000002, 4.57200000000001, 0,  !- X,Y,Z Vertex 3 {m}
  4.57200000000002, 4.57200000000001, 3.048; !- X,Y,Z Vertex 4 {m}

OS:Surface,
  {6ae06376-d92f-40d8-8b3f-c502cf543f7e}, !- Handle
  Surface 5,                              !- Name
  Wall,                                   !- Surface Type
  ,                                       !- Construction Name
  {aab2f3c9-ea21-4b31-841f-2790d28ccd1f}, !- Space Name
  Outdoors,                               !- Outside Boundary Condition
  ,                                       !- Outside Boundary Condition Object
  SunExposed,                             !- Sun Exposure
  WindExposed,                            !- Wind Exposure
  ,                                       !- View Factor to Ground
  ,                                       !- Number of Vertices
  1.77635683940025e-14, 4.44089209850063e-14, 3.048, !- X,Y,Z Vertex 1 {m}
  1.77635683940025e-14, 4.44089209850063e-14, 0, !- X,Y,Z Vertex 2 {m}
  4.57200000000002, 4.44089209850063e-14, 0, !- X,Y,Z Vertex 3 {m}
  4.57200000000002, 4.44089209850063e-14, 3.048; !- X,Y,Z Vertex 4 {m}

OS:Surface,
  {cc4fff6d-029e-4eef-89dd-e44dc52318e4}, !- Handle
  Surface 6,                              !- Name
  RoofCeiling,                            !- Surface Type
  ,                                       !- Construction Name
  {aab2f3c9-ea21-4b31-841f-2790d28ccd1f}, !- Space Name
  Outdoors,                               !- Outside Boundary Condition
  ,                                       !- Outside Boundary Condition Object
  SunExposed,                             !- Sun Exposure
  WindExposed,                            !- Wind Exposure
  ,                                       !- View Factor to Ground
  ,                                       !- Number of Vertices
  4.57200000000002, 4.44089209850063e-14, 3.048, !- X,Y,Z Vertex 1 {m}
  4.57200000000002, 4.57200000000001, 3.048, !- X,Y,Z Vertex 2 {m}
  1.77635683940025e-14, 4.57200000000001, 3.048, !- X,Y,Z Vertex 3 {m}
  1.77635683940025e-14, 4.44089209850063e-14, 3.048; !- X,Y,Z Vertex 4 {m}

OS:ThermalZone,
  {54d3f785-9b5a-4c4b-96f0-4a066fa8cfa7}, !- Handle
  Zone Office WholeBuilding - Sm Office A end_a - Story Ground, !- Name
  1,                                      !- Multiplier
  ,                                       !- Ceiling Height {m}
  ,                                       !- Volume {m3}
  ,                                       !- Floor Area {m2}
  ,                                       !- Zone Inside Convection Algorithm
  ,                                       !- Zone Outside Convection Algorithm
  ,                                       !- Zone Conditioning Equipment List Name
  {a6ca746d-20c8-44b3-8a84-a4e1e4342ca6}, !- Zone Air Inlet Port List
  {f5458110-ae5e-4e28-b837-538cb25ba4a8}, !- Zone Air Exhaust Port List
  {8e6ecf33-180b-4d3c-8d00-c7a3cf8af51f}, !- Zone Air Node Name
  {6884edae-ad93-4977-a0cf-5c75f9dab4b0}, !- Zone Return Air Port List
  ,                                       !- Primary Daylighting Control Name
  ,                                       !- Fraction of Zone Controlled by Primary Daylighting Control
  ,                                       !- Secondary Daylighting Control Name
  ,                                       !- Fraction of Zone Controlled by Secondary Daylighting Control
  ,                                       !- Illuminance Map Name
  ,                                       !- Group Rendering Name
  ,                                       !- Thermostat Name
  No;                                     !- Use Ideal Air Loads

OS:Node,
  {e3f4663e-b76b-4289-bab5-0ad9243ca638}, !- Handle
  Node 1,                                 !- Name
  {8e6ecf33-180b-4d3c-8d00-c7a3cf8af51f}, !- Inlet Port
  ;                                       !- Outlet Port

OS:Connection,
  {8e6ecf33-180b-4d3c-8d00-c7a3cf8af51f}, !- Handle
  {fe1efbd0-2f50-4ae5-acc1-cc57124c2bb9}, !- Name
  {54d3f785-9b5a-4c4b-96f0-4a066fa8cfa7}, !- Source Object
  11,                                     !- Outlet Port
  {e3f4663e-b76b-4289-bab5-0ad9243ca638}, !- Target Object
  2;                                      !- Inlet Port

OS:PortList,
  {a6ca746d-20c8-44b3-8a84-a4e1e4342ca6}, !- Handle
  {842fab00-e035-4450-8267-326d0cec3e39}, !- Name
  {54d3f785-9b5a-4c4b-96f0-4a066fa8cfa7}; !- HVAC Component

OS:PortList,
  {f5458110-ae5e-4e28-b837-538cb25ba4a8}, !- Handle
  {f0ab37c3-a0e2-4b4c-a81c-f64842e05710}, !- Name
  {54d3f785-9b5a-4c4b-96f0-4a066fa8cfa7}; !- HVAC Component

OS:PortList,
  {6884edae-ad93-4977-a0cf-5c75f9dab4b0}, !- Handle
  {fde5c6e6-d259-496c-bfe6-a0f386889b61}, !- Name
  {54d3f785-9b5a-4c4b-96f0-4a066fa8cfa7}; !- HVAC Component

OS:Sizing:Zone,
  {2056370f-27df-4738-b4dc-435529e350a8}, !- Handle
  {54d3f785-9b5a-4c4b-96f0-4a066fa8cfa7}, !- Zone or ZoneList Name
  SupplyAirTemperature,                   !- Zone Cooling Design Supply Air Temperature Input Method
  14,                                     !- Zone Cooling Design Supply Air Temperature {C}
  11.11,                                  !- Zone Cooling Design Supply Air Temperature Difference {deltaC}
  SupplyAirTemperature,                   !- Zone Heating Design Supply Air Temperature Input Method
  40,                                     !- Zone Heating Design Supply Air Temperature {C}
  11.11,                                  !- Zone Heating Design Supply Air Temperature Difference {deltaC}
  0.0085,                                 !- Zone Cooling Design Supply Air Humidity Ratio {kg-H2O/kg-air}
  0.008,                                  !- Zone Heating Design Supply Air Humidity Ratio {kg-H2O/kg-air}
  ,                                       !- Zone Heating Sizing Factor
  ,                                       !- Zone Cooling Sizing Factor
  DesignDay,                              !- Cooling Design Air Flow Method
  ,                                       !- Cooling Design Air Flow Rate {m3/s}
  ,                                       !- Cooling Minimum Air Flow per Zone Floor Area {m3/s-m2}
  ,                                       !- Cooling Minimum Air Flow {m3/s}
  ,                                       !- Cooling Minimum Air Flow Fraction
  DesignDay,                              !- Heating Design Air Flow Method
  ,                                       !- Heating Design Air Flow Rate {m3/s}
  ,                                       !- Heating Maximum Air Flow per Zone Floor Area {m3/s-m2}
  ,                                       !- Heating Maximum Air Flow {m3/s}
  ,                                       !- Heating Maximum Air Flow Fraction
  ,                                       !- Design Zone Air Distribution Effectiveness in Cooling Mode
  ,                                       !- Design Zone Air Distribution Effectiveness in Heating Mode
  No,                                     !- Account for Dedicated Outdoor Air System
  NeutralSupplyAir,                       !- Dedicated Outdoor Air System Control Strategy
  autosize,                               !- Dedicated Outdoor Air Low Setpoint Temperature for Design {C}
  autosize;                               !- Dedicated Outdoor Air High Setpoint Temperature for Design {C}

OS:ZoneHVAC:EquipmentList,
  {765ebfe2-1a59-4f3b-8add-5b88e205b6f7}, !- Handle
  Zone HVAC Equipment List 1,             !- Name
  {54d3f785-9b5a-4c4b-96f0-4a066fa8cfa7}; !- Thermal Zone

OS:Space,
  {f3a728bc-8c25-452b-be31-8783146c3163}, !- Handle
  Office WholeBuilding - Sm Office B end_a - Story Ground, !- Name
  {b2fee3d7-059e-4bab-89dd-a67ca6a5d2cb}, !- Space Type Name
  ,                                       !- Default Construction Set Name
  ,                                       !- Default Schedule Set Name
  -0,                                     !- Direction of Relative North {deg}
  -18.6651118400078,                      !- X Origin {m}
  -7.87140789333854,                      !- Y Origin {m}
  0,                                      !- Z Origin {m}
  {4e6de36e-ce74-4c8c-a733-39fcd4bc664c}, !- Building Story Name
  {896bede7-11be-4dab-96e6-efc4fad0b59b}; !- Thermal Zone Name

OS:Surface,
  {9cab748c-17e1-4251-87a2-a043de616378}, !- Handle
  Surface 7,                              !- Name
  Floor,                                  !- Surface Type
  ,                                       !- Construction Name
  {f3a728bc-8c25-452b-be31-8783146c3163}, !- Space Name
  Ground,                                 !- Outside Boundary Condition
  ,                                       !- Outside Boundary Condition Object
  NoSun,                                  !- Sun Exposure
  NoWind,                                 !- Wind Exposure
  ,                                       !- View Factor to Ground
  ,                                       !- Number of Vertices
  1.77635683940025e-14, 5.32907051820075e-15, 0, !- X,Y,Z Vertex 1 {m}
  1.77635683940025e-14, 15.7428157866771, 0, !- X,Y,Z Vertex 2 {m}
  4.57200000000002, 15.7428157866771, 0,  !- X,Y,Z Vertex 3 {m}
  4.57200000000002, 5.32907051820075e-15, 0; !- X,Y,Z Vertex 4 {m}

OS:Surface,
  {bcf9dc63-8e86-4faf-a70c-742e668abb93}, !- Handle
  Surface 8,                              !- Name
  Wall,                                   !- Surface Type
  ,                                       !- Construction Name
  {f3a728bc-8c25-452b-be31-8783146c3163}, !- Space Name
  Outdoors,                               !- Outside Boundary Condition
  ,                                       !- Outside Boundary Condition Object
  SunExposed,                             !- Sun Exposure
  WindExposed,                            !- Wind Exposure
  ,                                       !- View Factor to Ground
  ,                                       !- Number of Vertices
  1.77635683940025e-14, 15.7428157866771, 3.048, !- X,Y,Z Vertex 1 {m}
  1.77635683940025e-14, 15.7428157866771, 0, !- X,Y,Z Vertex 2 {m}
  1.77635683940025e-14, 5.32907051820075e-15, 0, !- X,Y,Z Vertex 3 {m}
  1.77635683940025e-14, 5.32907051820075e-15, 3.048; !- X,Y,Z Vertex 4 {m}

OS:Surface,
  {8bdbfb58-43ce-49f6-b964-d5326cfd9d97}, !- Handle
  Surface 9,                              !- Name
  Wall,                                   !- Surface Type
  ,                                       !- Construction Name
  {f3a728bc-8c25-452b-be31-8783146c3163}, !- Space Name
  Surface,                                !- Outside Boundary Condition
  {80535c6d-d1ca-42a2-95b7-ca75b404241c}, !- Outside Boundary Condition Object
  NoSun,                                  !- Sun Exposure
  NoWind,                                 !- Wind Exposure
  ,                                       !- View Factor to Ground
  ,                                       !- Number of Vertices
  4.57200000000002, 15.7428157866771, 3.048, !- X,Y,Z Vertex 1 {m}
  4.57200000000002, 15.7428157866771, 0,  !- X,Y,Z Vertex 2 {m}
  1.77635683940025e-14, 15.7428157866771, 0, !- X,Y,Z Vertex 3 {m}
  1.77635683940025e-14, 15.7428157866771, 3.048; !- X,Y,Z Vertex 4 {m}

OS:Surface,
  {0e87485b-3dec-4bcf-ad65-9c4dc9774cec}, !- Handle
  Surface 10,                             !- Name
  Wall,                                   !- Surface Type
  ,                                       !- Construction Name
  {f3a728bc-8c25-452b-be31-8783146c3163}, !- Space Name
  Surface,                                !- Outside Boundary Condition
  {9f656fae-b9be-490d-a924-a2a9065dec90}, !- Outside Boundary Condition Object
  NoSun,                                  !- Sun Exposure
  NoWind,                                 !- Wind Exposure
  ,                                       !- View Factor to Ground
  ,                                       !- Number of Vertices
  4.57200000000002, 5.32907051820075e-15, 3.048, !- X,Y,Z Vertex 1 {m}
  4.57200000000002, 5.32907051820075e-15, 0, !- X,Y,Z Vertex 2 {m}
  4.57200000000002, 15.7428157866771, 0,  !- X,Y,Z Vertex 3 {m}
  4.57200000000002, 15.7428157866771, 3.048; !- X,Y,Z Vertex 4 {m}

OS:Surface,
  {719a21ac-d92c-46bd-996d-bac2221abcdd}, !- Handle
  Surface 11,                             !- Name
  Wall,                                   !- Surface Type
  ,                                       !- Construction Name
  {f3a728bc-8c25-452b-be31-8783146c3163}, !- Space Name
  Surface,                                !- Outside Boundary Condition
  {2693336b-03f1-4c68-84d5-262b4eaf5faf}, !- Outside Boundary Condition Object
  NoSun,                                  !- Sun Exposure
  NoWind,                                 !- Wind Exposure
  ,                                       !- View Factor to Ground
  ,                                       !- Number of Vertices
  1.77635683940025e-14, 5.32907051820075e-15, 3.048, !- X,Y,Z Vertex 1 {m}
  1.77635683940025e-14, 5.32907051820075e-15, 0, !- X,Y,Z Vertex 2 {m}
  4.57200000000002, 5.32907051820075e-15, 0, !- X,Y,Z Vertex 3 {m}
  4.57200000000002, 5.32907051820075e-15, 3.048; !- X,Y,Z Vertex 4 {m}

OS:Surface,
  {f89c2306-5e27-445f-bbc9-ab9bbc862566}, !- Handle
  Surface 12,                             !- Name
  RoofCeiling,                            !- Surface Type
  ,                                       !- Construction Name
  {f3a728bc-8c25-452b-be31-8783146c3163}, !- Space Name
  Outdoors,                               !- Outside Boundary Condition
  ,                                       !- Outside Boundary Condition Object
  SunExposed,                             !- Sun Exposure
  WindExposed,                            !- Wind Exposure
  ,                                       !- View Factor to Ground
  ,                                       !- Number of Vertices
  4.57200000000002, 5.32907051820075e-15, 3.048, !- X,Y,Z Vertex 1 {m}
  4.57200000000002, 15.7428157866771, 3.048, !- X,Y,Z Vertex 2 {m}
  1.77635683940025e-14, 15.7428157866771, 3.048, !- X,Y,Z Vertex 3 {m}
  1.77635683940025e-14, 5.32907051820075e-15, 3.048; !- X,Y,Z Vertex 4 {m}

OS:ThermalZone,
  {896bede7-11be-4dab-96e6-efc4fad0b59b}, !- Handle
  Zone Office WholeBuilding - Sm Office B end_a - Story Ground, !- Name
  1,                                      !- Multiplier
  ,                                       !- Ceiling Height {m}
  ,                                       !- Volume {m3}
  ,                                       !- Floor Area {m2}
  ,                                       !- Zone Inside Convection Algorithm
  ,                                       !- Zone Outside Convection Algorithm
  ,                                       !- Zone Conditioning Equipment List Name
  {e096be8f-ce00-4802-be39-010235d17c35}, !- Zone Air Inlet Port List
  {1fcc8e87-de54-4df9-8525-472a6f1d9f0e}, !- Zone Air Exhaust Port List
  {4edfad91-a518-4945-ae50-8bc0bd980e41}, !- Zone Air Node Name
  {7113cf77-7afe-4d9d-93d9-17e1069ddd13}, !- Zone Return Air Port List
  ,                                       !- Primary Daylighting Control Name
  ,                                       !- Fraction of Zone Controlled by Primary Daylighting Control
  ,                                       !- Secondary Daylighting Control Name
  ,                                       !- Fraction of Zone Controlled by Secondary Daylighting Control
  ,                                       !- Illuminance Map Name
  ,                                       !- Group Rendering Name
  ,                                       !- Thermostat Name
  No;                                     !- Use Ideal Air Loads

OS:Node,
  {7536864e-f107-41a0-89d6-5ca1fd2aa093}, !- Handle
  Node 2,                                 !- Name
  {4edfad91-a518-4945-ae50-8bc0bd980e41}, !- Inlet Port
  ;                                       !- Outlet Port

OS:Connection,
  {4edfad91-a518-4945-ae50-8bc0bd980e41}, !- Handle
  {4455fdf2-c4d1-4aaa-a076-2cc4eb4c8cbd}, !- Name
  {896bede7-11be-4dab-96e6-efc4fad0b59b}, !- Source Object
  11,                                     !- Outlet Port
  {7536864e-f107-41a0-89d6-5ca1fd2aa093}, !- Target Object
  2;                                      !- Inlet Port

OS:PortList,
  {e096be8f-ce00-4802-be39-010235d17c35}, !- Handle
  {dc6dab37-ee7f-413a-89b7-3f61673a65a1}, !- Name
  {896bede7-11be-4dab-96e6-efc4fad0b59b}; !- HVAC Component

OS:PortList,
  {1fcc8e87-de54-4df9-8525-472a6f1d9f0e}, !- Handle
  {d50acbea-8bd3-43e0-8c31-7a9a416e6fe5}, !- Name
  {896bede7-11be-4dab-96e6-efc4fad0b59b}; !- HVAC Component

OS:PortList,
  {7113cf77-7afe-4d9d-93d9-17e1069ddd13}, !- Handle
  {1c304bf1-9d40-46dd-98c9-329fa780ade0}, !- Name
  {896bede7-11be-4dab-96e6-efc4fad0b59b}; !- HVAC Component

OS:Sizing:Zone,
  {6cae08f0-fcd5-4212-96a2-9e87197d5527}, !- Handle
  {896bede7-11be-4dab-96e6-efc4fad0b59b}, !- Zone or ZoneList Name
  SupplyAirTemperature,                   !- Zone Cooling Design Supply Air Temperature Input Method
  14,                                     !- Zone Cooling Design Supply Air Temperature {C}
  11.11,                                  !- Zone Cooling Design Supply Air Temperature Difference {deltaC}
  SupplyAirTemperature,                   !- Zone Heating Design Supply Air Temperature Input Method
  40,                                     !- Zone Heating Design Supply Air Temperature {C}
  11.11,                                  !- Zone Heating Design Supply Air Temperature Difference {deltaC}
  0.0085,                                 !- Zone Cooling Design Supply Air Humidity Ratio {kg-H2O/kg-air}
  0.008,                                  !- Zone Heating Design Supply Air Humidity Ratio {kg-H2O/kg-air}
  ,                                       !- Zone Heating Sizing Factor
  ,                                       !- Zone Cooling Sizing Factor
  DesignDay,                              !- Cooling Design Air Flow Method
  ,                                       !- Cooling Design Air Flow Rate {m3/s}
  ,                                       !- Cooling Minimum Air Flow per Zone Floor Area {m3/s-m2}
  ,                                       !- Cooling Minimum Air Flow {m3/s}
  ,                                       !- Cooling Minimum Air Flow Fraction
  DesignDay,                              !- Heating Design Air Flow Method
  ,                                       !- Heating Design Air Flow Rate {m3/s}
  ,                                       !- Heating Maximum Air Flow per Zone Floor Area {m3/s-m2}
  ,                                       !- Heating Maximum Air Flow {m3/s}
  ,                                       !- Heating Maximum Air Flow Fraction
  ,                                       !- Design Zone Air Distribution Effectiveness in Cooling Mode
  ,                                       !- Design Zone Air Distribution Effectiveness in Heating Mode
  No,                                     !- Account for Dedicated Outdoor Air System
  NeutralSupplyAir,                       !- Dedicated Outdoor Air System Control Strategy
  autosize,                               !- Dedicated Outdoor Air Low Setpoint Temperature for Design {C}
  autosize;                               !- Dedicated Outdoor Air High Setpoint Temperature for Design {C}

OS:ZoneHVAC:EquipmentList,
  {ecb9f20f-de80-423a-b5e1-324262e6c24d}, !- Handle
  Zone HVAC Equipment List 2,             !- Name
  {896bede7-11be-4dab-96e6-efc4fad0b59b}; !- Thermal Zone

OS:Space,
  {6a3b7cac-007c-4562-8f1b-cb34230ee499}, !- Handle
  Office WholeBuilding - Sm Office C end_a - Story Ground, !- Name
  {b2fee3d7-059e-4bab-89dd-a67ca6a5d2cb}, !- Space Type Name
  ,                                       !- Default Construction Set Name
  ,                                       !- Default Schedule Set Name
  -0,                                     !- Direction of Relative North {deg}
  -18.6651118400078,                      !- X Origin {m}
  7.87140789333854,                       !- Y Origin {m}
  0,                                      !- Z Origin {m}
  {4e6de36e-ce74-4c8c-a733-39fcd4bc664c}, !- Building Story Name
  {0a138d89-7fb5-44f7-aa2e-984dd4c05bc6}; !- Thermal Zone Name

OS:Surface,
  {63417421-13e7-490b-8b05-983f44221da7}, !- Handle
  Surface 13,                             !- Name
  Floor,                                  !- Surface Type
  ,                                       !- Construction Name
  {6a3b7cac-007c-4562-8f1b-cb34230ee499}, !- Space Name
  Ground,                                 !- Outside Boundary Condition
  ,                                       !- Outside Boundary Condition Object
  NoSun,                                  !- Sun Exposure
  NoWind,                                 !- Wind Exposure
  ,                                       !- View Factor to Ground
  ,                                       !- Number of Vertices
  1.77635683940025e-14, -5.32907051820075e-15, 0, !- X,Y,Z Vertex 1 {m}
  1.77635683940025e-14, 4.57199999999996, 0, !- X,Y,Z Vertex 2 {m}
  4.57200000000002, 4.57199999999996, 0,  !- X,Y,Z Vertex 3 {m}
  4.57200000000002, -5.32907051820075e-15, 0; !- X,Y,Z Vertex 4 {m}

OS:Surface,
  {e37b91b6-d63c-42cd-bcb4-fa01b761ceea}, !- Handle
  Surface 14,                             !- Name
  Wall,                                   !- Surface Type
  ,                                       !- Construction Name
  {6a3b7cac-007c-4562-8f1b-cb34230ee499}, !- Space Name
  Outdoors,                               !- Outside Boundary Condition
  ,                                       !- Outside Boundary Condition Object
  SunExposed,                             !- Sun Exposure
  WindExposed,                            !- Wind Exposure
  ,                                       !- View Factor to Ground
  ,                                       !- Number of Vertices
  1.77635683940025e-14, 4.57199999999996, 3.048, !- X,Y,Z Vertex 1 {m}
  1.77635683940025e-14, 4.57199999999996, 0, !- X,Y,Z Vertex 2 {m}
  1.77635683940025e-14, -5.32907051820075e-15, 0, !- X,Y,Z Vertex 3 {m}
  1.77635683940025e-14, -5.32907051820075e-15, 3.048; !- X,Y,Z Vertex 4 {m}

OS:Surface,
  {379c0b5a-7867-4b32-88e7-5a4f8937ee00}, !- Handle
  Surface 15,                             !- Name
  Wall,                                   !- Surface Type
  ,                                       !- Construction Name
  {6a3b7cac-007c-4562-8f1b-cb34230ee499}, !- Space Name
  Outdoors,                               !- Outside Boundary Condition
  ,                                       !- Outside Boundary Condition Object
  SunExposed,                             !- Sun Exposure
  WindExposed,                            !- Wind Exposure
  ,                                       !- View Factor to Ground
  ,                                       !- Number of Vertices
  4.57200000000002, 4.57199999999996, 3.048, !- X,Y,Z Vertex 1 {m}
  4.57200000000002, 4.57199999999996, 0,  !- X,Y,Z Vertex 2 {m}
  1.77635683940025e-14, 4.57199999999996, 0, !- X,Y,Z Vertex 3 {m}
  1.77635683940025e-14, 4.57199999999996, 3.048; !- X,Y,Z Vertex 4 {m}

OS:Surface,
  {d0fed723-81ff-4473-ba5e-1b25935ce6e3}, !- Handle
  Surface 16,                             !- Name
  Wall,                                   !- Surface Type