
OS:Version,
  {9853f8d7-2056-4543-892b-85fa5230b5cf}, !- Handle
  2.8.0;                                  !- Version Identifier

OS:SpaceType,
  {698abe57-4435-4a58-8f77-3b9e67adec41}, !- Handle
  MidriseApartment Apartment,             !- Name
  ,                                       !- Default Construction Set Name
  ,                                       !- Default Schedule Set Name
  {28191318-b392-4abf-b357-3d0a55d4989c}, !- Group Rendering Name
  ,                                       !- Design Specification Outdoor Air Object Name
  ,                                       !- Standards Template
  MidriseApartment,                       !- Standards Building Type
  Apartment;                              !- Standards Space Type

OS:Rendering:Color,
  {28191318-b392-4abf-b357-3d0a55d4989c}, !- Handle
  MidriseApartment Apartment,             !- Name
  78,                                     !- Rendering Red Value
  167,                                    !- Rendering Green Value
  222;                                    !- Rendering Blue Value

OS:SpaceType,
  {e76afe67-ae7a-4d43-841b-190b4c33b809}, !- Handle
  MidriseApartment Corridor,              !- Name
  ,                                       !- Default Construction Set Name
  ,                                       !- Default Schedule Set Name
  {2bc01318-f699-4d47-94c5-5a26b6c5e6dd}, !- Group Rendering Name
  ,                                       !- Design Specification Outdoor Air Object Name
  ,                                       !- Standards Template
  MidriseApartment,                       !- Standards Building Type
  Corridor;                               !- Standards Space Type

OS:Rendering:Color,
  {2bc01318-f699-4d47-94c5-5a26b6c5e6dd}, !- Handle
  MidriseApartment Corridor,              !- Name
  169,                                    !- Rendering Red Value
  31,                                     !- Rendering Green Value
  31;                                     !- Rendering Blue Value

OS:SpaceType,
  {84f7e327-9908-4c72-8647-31d292637d31}, !- Handle
  MidriseApartment Office,                !- Name
  ,                                       !- Default Construction Set Name
  ,                                       !- Default Schedule Set Name
  {2f194512-0d4c-4347-8b4c-54068bfdf16d}, !- Group Rendering Name
  ,                                       !- Design Specification Outdoor Air Object Name
  ,                                       !- Standards Template
  MidriseApartment,                       !- Standards Building Type
  Office;                                 !- Standards Space Type

OS:Rendering:Color,
  {2f194512-0d4c-4347-8b4c-54068bfdf16d}, !- Handle
  MidriseApartment Office,                !- Name
  120,                                    !- Rendering Red Value
  230,                                    !- Rendering Green Value
  199;                                    !- Rendering Blue Value

OS:Building,
  {cda98265-5934-4b76-8e9f-b61cbbf06367}, !- Handle
  90.1-2004|MidriseApartment,             !- Name
  ,                                       !- Building Sector Type
  ,                                       !- North Axis {deg}
  ,                                       !- Nominal Floor to Floor Height {m}
  ,                                       !- Space Type Name
  ,                                       !- Default Construction Set Name
  ;                                       !- Default Schedule Set Name

OS:Site,
  {2eb4cc0a-0e5a-41cc-8ad7-492a4fd529ed}, !- Handle
  Site 1,                                 !- Name
  ,                                       !- Latitude {deg}
  ,                                       !- Longitude {deg}
  ,                                       !- Time Zone {hr}
  ,                                       !- Elevation {m}
  ;                                       !- Terrain

OS:BuildingStory,
  {177125b3-a2e8-46d0-8742-61ba5a211541}, !- Handle
  Story Ground,                           !- Name
  0,                                      !- Nominal Z Coordinate {m}
  3.048,                                  !- Nominal Floor to Floor Height {m}
  ,                                       !- Default Construction Set Name
  ,                                       !- Default Schedule Set Name
  ;                                       !- Group Rendering Name

OS:Space,
  {b29f84e5-db1c-4626-8061-a746e78125fa}, !- Handle
  MidriseApartment Apartment A end_a - Story Ground, !- Name
  {698abe57-4435-4a58-8f77-3b9e67adec41}, !- Space Type Name
  ,                                       !- Default Construction Set Name
  ,                                       !- Default Schedule Set Name
  -0,                                     !- Direction of Relative North {deg}
  -21.552614690566,                       !- X Origin {m}
  -7.83731443293308,                      !- Y Origin {m}
  0,                                      !- Z Origin {m}
  {177125b3-a2e8-46d0-8742-61ba5a211541}, !- Building Story Name
  {02a77ad0-93e1-426d-8c08-423830956367}; !- Thermal Zone Name

OS:Surface,
  {80bd5f9f-9804-45de-9c0e-6e3b2f497d77}, !- Handle
  Surface 1,                              !- Name
  Floor,                                  !- Surface Type
  ,                                       !- Construction Name
  {b29f84e5-db1c-4626-8061-a746e78125fa}, !- Space Name
  Ground,                                 !- Outside Boundary Condition
  ,                                       !- Outside Boundary Condition Object
  NoSun,                                  !- Sun Exposure
  NoWind,                                 !- Wind Exposure
  ,                                       !- View Factor to Ground
  ,                                       !- Number of Vertices
  -2.8421709430404e-14, 0, 0,             !- X,Y,Z Vertex 1 {m}
  -2.8421709430404e-14, 4.572, 0,         !- X,Y,Z Vertex 2 {m}
  4.57199999999997, 4.572, 0,             !- X,Y,Z Vertex 3 {m}
  4.57199999999997, 0, 0;                 !- X,Y,Z Vertex 4 {m}

OS:Surface,
  {35a642e0-bf31-40e0-8e57-470c29b407d2}, !- Handle
  Surface 2,                              !- Name
  Wall,                                   !- Surface Type
  ,                                       !- Construction Name
  {b29f84e5-db1c-4626-8061-a746e78125fa}, !- Space Name
  Outdoors,                               !- Outside Boundary Condition
  ,                                       !- Outside Boundary Condition Object
  SunExposed,                             !- Sun Exposure
  WindExposed,                            !- Wind Exposure
  ,                                       !- View Factor to Ground
  ,                                       !- Number of Vertices
  -2.8421709430404e-14, 4.572, 3.048,     !- X,Y,Z Vertex 1 {m}
  -2.8421709430404e-14, 4.572, 0,         !- X,Y,Z Vertex 2 {m}
  -2.8421709430404e-14, 0, 0,             !- X,Y,Z Vertex 3 {m}
  -2.8421709430404e-14, 0, 3.048;         !- X,Y,Z Vertex 4 {m}

OS:Surface,
  {b995ac74-e9a5-440f-8977-e7c2e9483ce4}, !- Handle
  Surface 3,                              !- Name
  Wall,                                   !- Surface Type
  ,                                       !- Construction Name
  {b29f84e5-db1c-4626-8061-a746e78125fa}, !- Space Name
  Surface,                                !- Outside Boundary Condition
  {f0ef06cc-713f-442a-bd2c-d3c86b039796}, !- Outside Boundary Condition Object
  NoSun,                                  !- Sun Exposure
  NoWind,                                 !- Wind Exposure
  ,                                       !- View Factor to Ground
  ,                                       !- Number of Vertices
  4.57199999999997, 4.572, 3.048,         !- X,Y,Z Vertex 1 {m}
  4.57199999999997, 4.572, 0,             !- X,Y,Z Vertex 2 {m}
  -2.8421709430404e-14, 4.572, 0,         !- X,Y,Z Vertex 3 {m}
  -2.8421709430404e-14, 4.572, 3.048;     !- X,Y,Z Vertex 4 {m}

OS:Surface,
  {17c1b8d7-f725-4f72-aeff-de447cb837a3}, !- Handle
  Surface 4,                              !- Name
  Wall,                                   !- Surface Type
  ,                                       !- Construction Name
  {b29f84e5-db1c-4626-8061-a746e78125fa}, !- Space Name
  Surface,                                !- Outside Boundary Condition
  {fc533016-aa17-4f41-aaa0-8c14baadbcb3}, !- Outside Boundary Condition Object
  NoSun,                                  !- Sun Exposure
  NoWind,                                 !- Wind Exposure
  ,                                       !- View Factor to Ground
  ,                                       !- Number of Vertices
  4.57199999999997, 0, 3.048,             !- X,Y,Z Vertex 1 {m}
  4.57199999999997, 0, 0,                 !- X,Y,Z Vertex 2 {m}
  4.57199999999997, 4.572, 0,             !- X,Y,Z Vertex 3 {m}
  4.57199999999997, 4.572, 3.048;         !- X,Y,Z Vertex 4 {m}

OS:Surface,
  {1b921a76-1a25-4c6c-ba52-4e851e1b59a2}, !- Handle
  Surface 5,                              !- Name
  Wall,                                   !- Surface Type
  ,                                       !- Construction Name
  {b29f84e5-db1c-4626-8061-a746e78125fa}, !- Space Name
  Outdoors,                               !- Outside Boundary Condition
  ,                                       !- Outside Boundary Condition Object
  SunExposed,                             !- Sun Exposure
  WindExposed,                            !- Wind Exposure
  ,                                       !- View Factor to Ground
  ,                                       !- Number of Vertices
  -2.8421709430404e-14, 0, 3.048,         !- X,Y,Z Vertex 1 {m}
  -2.8421709430404e-14, 0, 0,             !- X,Y,Z Vertex 2 {m}
  4.57199999999997, 0, 0,                 !- X,Y,Z Vertex 3 {m}
  4.57199999999997, 0, 3.048;             !- X,Y,Z Vertex 4 {m}

OS:Surface,
  {7bd887c7-7254-43b9-a229-c83acbf794e8}, !- Handle
  Surface 6,                              !- Name
  RoofCeiling,                            !- Surface Type
  ,                                       !- Construction Name
  {b29f84e5-db1c-4626-8061-a746e78125fa}, !- Space Name
  Adiabatic,                              !- Outside Boundary Condition
  ,                                       !- Outside Boundary Condition Object
  NoSun,                                  !- Sun Exposure
  NoWind,                                 !- Wind Exposure
  ,                                       !- View Factor to Ground
  ,                                       !- Number of Vertices
  4.57199999999997, 0, 3.048,             !- X,Y,Z Vertex 1 {m}
  4.57199999999997, 4.572, 3.048,         !- X,Y,Z Vertex 2 {m}
  -2.8421709430404e-14, 4.572, 3.048,     !- X,Y,Z Vertex 3 {m}
  -2.8421709430404e-14, 0, 3.048;         !- X,Y,Z Vertex 4 {m}

OS:ThermalZone,
  {02a77ad0-93e1-426d-8c08-423830956367}, !- Handle
  Zone MidriseApartment Apartment A end_a - Story Ground, !- Name
  1,                                      !- Multiplier
  ,                                       !- Ceiling Height {m}
  ,                                       !- Volume {m3}
  ,                                       !- Floor Area {m2}
  ,                                       !- Zone Inside Convection Algorithm
  ,                                       !- Zone Outside Convection Algorithm
  ,                                       !- Zone Conditioning Equipment List Name
  {c98cebe9-7958-440c-a951-1797ec6fc191}, !- Zone Air Inlet Port List
  {dd8f5620-ef3e-45e1-b587-eec9205877ae}, !- Zone Air Exhaust Port List
  {d59887fc-8b32-47a4-ba8a-c3392a839e40}, !- Zone Air Node Name
  {5a7c2f04-d9f3-4e3a-abd2-be548994a17c}, !- Zone Return Air Port List
  ,                                       !- Primary Daylighting Control Name
  ,                                       !- Fraction of Zone Controlled by Primary Daylighting Control
  ,                                       !- Secondary Daylighting Control Name
  ,                                       !- Fraction of Zone Controlled by Secondary Daylighting Control
  ,                                       !- Illuminance Map Name
  ,                                       !- Group Rendering Name
  ,                                       !- Thermostat Name
  No;                                     !- Use Ideal Air Loads

OS:Node,
  {e785ac75-ebeb-4ce3-a0ca-8f6bc6f58e91}, !- Handle
  Node 1,                                 !- Name
  {d59887fc-8b32-47a4-ba8a-c3392a839e40}, !- Inlet Port
  ;                                       !- Outlet Port

OS:Connection,
  {d59887fc-8b32-47a4-ba8a-c3392a839e40}, !- Handle
  {7ab28756-7e85-4e9d-8aaa-95572fc8b0b3}, !- Name
  {02a77ad0-93e1-426d-8c08-423830956367}, !- Source Object
  11,                                     !- Outlet Port
  {e785ac75-ebeb-4ce3-a0ca-8f6bc6f58e91}, !- Target Object
  2;                                      !- Inlet Port

OS:PortList,
  {c98cebe9-7958-440c-a951-1797ec6fc191}, !- Handle
  {6f24a4bb-eb27-443b-97f4-6588db948182}, !- Name
  {02a77ad0-93e1-426d-8c08-423830956367}; !- HVAC Component

OS:PortList,
  {dd8f5620-ef3e-45e1-b587-eec9205877ae}, !- Handle
  {fb64ad3e-1797-42d7-bc37-03c1f00bde5b}, !- Name
  {02a77ad0-93e1-426d-8c08-423830956367}; !- HVAC Component

OS:PortList,
  {5a7c2f04-d9f3-4e3a-abd2-be548994a17c}, !- Handle
  {0b6e3d36-ec6d-4667-9b18-39365d3f5767}, !- Name
  {02a77ad0-93e1-426d-8c08-423830956367}; !- HVAC Component

OS:Sizing:Zone,
  {1f10af5d-206f-43ee-870c-c0c20036c535}, !- Handle
  {02a77ad0-93e1-426d-8c08-423830956367}, !- Zone or ZoneList Name
  SupplyAirTemperature,                   !- Zone Cooling Design Supply Air Temperature Input Method
  14,                                     !- Zone Cooling Design Supply Air Temperature {C}
  11.11,                                  !- Zone Cooling Design Supply Air Temperature Difference {deltaC}
  SupplyAirTemperature,                   !- Zone Heating Design Supply Air Temperature Input Method
  40,                                     !- Zone Heating Design Supply Air Temperature {C}
  11.11,                                  !- Zone Heating Design Supply Air Temperature Difference {deltaC}
  0.0085,                                 !- Zone Cooling Design Supply Air Humidity Ratio {kg-H2O/kg-air}
  0.008,                                  !- Zone Heating Design Supply Air Humidity Ratio {kg-H2O/kg-air}
  ,                                       !- Zone Heating Sizing Factor
  ,                                       !- Zone Cooling Sizing Factor
  DesignDay,                              !- Cooling Design Air Flow Method
  ,                                       !- Cooling Design Air Flow Rate {m3/s}
  ,                                       !- Cooling Minimum Air Flow per Zone Floor Area {m3/s-m2}
  ,                                       !- Cooling Minimum Air Flow {m3/s}
  ,                                       !- Cooling Minimum Air Flow Fraction
  DesignDay,                              !- Heating Design Air Flow Method
  ,                                       !- Heating Design Air Flow Rate {m3/s}
  ,                                       !- Heating Maximum Air Flow per Zone Floor Area {m3/s-m2}
  ,                                       !- Heating Maximum Air Flow {m3/s}
  ,                                       !- Heating Maximum Air Flow Fraction
  ,                                       !- Design Zone Air Distribution Effectiveness in Cooling Mode
  ,                                       !- Design Zone Air Distribution Effectiveness in Heating Mode
  No,                                     !- Account for Dedicated Outdoor Air System
  NeutralSupplyAir,                       !- Dedicated Outdoor Air System Control Strategy
  autosize,                               !- Dedicated Outdoor Air Low Setpoint Temperature for Design {C}
  autosize;                               !- Dedicated Outdoor Air High Setpoint Temperature for Design {C}

OS:ZoneHVAC:EquipmentList,
  {239c3787-02fe-40e6-a319-ca66fae8f4f1}, !- Handle
  Zone HVAC Equipment List 1,             !- Name
  {02a77ad0-93e1-426d-8c08-423830956367}; !- Thermal Zone

OS:Space,
  {5bd8eb1a-5641-40fd-8a2b-8aea32afb9f0}, !- Handle
  MidriseApartment Apartment B end_a - Story Ground, !- Name
  {698abe57-4435-4a58-8f77-3b9e67adec41}, !- Space Type Name
  ,                                       !- Default Construction Set Name
  ,                                       !- Default Schedule Set Name
  -0,                                     !- Direction of Relative North {deg}
  -21.552614690566,                       !- X Origin {m}
  -3.26531443293308,                      !- Y Origin {m}
  0,                                      !- Z Origin {m}
  {177125b3-a2e8-46d0-8742-61ba5a211541}, !- Building Story Name
  {2f3c0fb4-fb90-4c5f-8a34-6677e33f067d}; !- Thermal Zone Name

OS:Surface,
  {a8a530c7-f330-40c8-ae64-bf34ccc358d5}, !- Handle
  Surface 7,                              !- Name
  Floor,                                  !- Surface Type
  ,                                       !- Construction Name
  {5bd8eb1a-5641-40fd-8a2b-8aea32afb9f0}, !- Space Name
  Ground,                                 !- Outside Boundary Condition
  ,                                       !- Outside Boundary Condition Object
  NoSun,                                  !- Sun Exposure
  NoWind,                                 !- Wind Exposure
  ,                                       !- View Factor to Ground
  ,                                       !- Number of Vertices
  -2.8421709430404e-14, -4.44089209850063e-16, 0, !- X,Y,Z Vertex 1 {m}
  -2.8421709430404e-14, 6.53062886586616, 0, !- X,Y,Z Vertex 2 {m}
  4.57199999999997, 6.53062886586616, 0,  !- X,Y,Z Vertex 3 {m}
  4.57199999999997, -4.44089209850063e-16, 0; !- X,Y,Z Vertex 4 {m}

OS:Surface,
  {2a172eef-5ed3-452e-a238-ed45aa946863}, !- Handle
  Surface 8,                              !- Name
  Wall,                                   !- Surface Type
  ,                                       !- Construction Name
  {5bd8eb1a-5641-40fd-8a2b-8aea32afb9f0}, !- Space Name
  Outdoors,                               !- Outside Boundary Condition
  ,                                       !- Outside Boundary Condition Object
  SunExposed,                             !- Sun Exposure
  WindExposed,                            !- Wind Exposure
  ,                                       !- View Factor to Ground
  ,                                       !- Number of Vertices
  -2.8421709430404e-14, 6.53062886586616, 3.048, !- X,Y,Z Vertex 1 {m}
  -2.8421709430404e-14, 6.53062886586616, 0, !- X,Y,Z Vertex 2 {m}
  -2.8421709430404e-14, -4.44089209850063e-16, 0, !- X,Y,Z Vertex 3 {m}
  -2.8421709430404e-14, -4.44089209850063e-16, 3.048; !- X,Y,Z Vertex 4 {m}

OS:Surface,
  {4eab1189-c20d-4a23-8586-e83c4e6aad82}, !- Handle
  Surface 9,                              !- Name
  Wall,                                   !- Surface Type
  ,                                       !- Construction Name
  {5bd8eb1a-5641-40fd-8a2b-8aea32afb9f0}, !- Space Name
  Surface,                                !- Outside Boundary Condition
  {a1545d7d-f65b-4f16-8363-243fc883adf3}, !- Outside Boundary Condition Object
  NoSun,                                  !- Sun Exposure
  NoWind,                                 !- Wind Exposure
  ,                                       !- View Factor to Ground
  ,                                       !- Number of Vertices
  4.57199999999997, 6.53062886586616, 3.048, !- X,Y,Z Vertex 1 {m}
  4.57199999999997, 6.53062886586616, 0,  !- X,Y,Z Vertex 2 {m}
  -2.8421709430404e-14, 6.53062886586616, 0, !- X,Y,Z Vertex 3 {m}
  -2.8421709430404e-14, 6.53062886586616, 3.048; !- X,Y,Z Vertex 4 {m}

OS:Surface,
  {055f56bb-9ba1-47a9-8968-b324072f3816}, !- Handle
  Surface 10,                             !- Name
  Wall,                                   !- Surface Type
  ,                                       !- Construction Name
  {5bd8eb1a-5641-40fd-8a2b-8aea32afb9f0}, !- Space Name
  Surface,                                !- Outside Boundary Condition
  {305153a4-b153-45da-97a7-9fa58b0cdee2}, !- Outside Boundary Condition Object
  NoSun,                                  !- Sun Exposure
  NoWind,                                 !- Wind Exposure
  ,                                       !- View Factor to Ground
  ,                                       !- Number of Vertices
  4.57199999999997, -4.44089209850063e-16, 3.048, !- X,Y,Z Vertex 1 {m}
  4.57199999999997, -4.44089209850063e-16, 0, !- X,Y,Z Vertex 2 {m}
  4.57199999999997, 6.53062886586616, 0,  !- X,Y,Z Vertex 3 {m}
  4.57199999999997, 6.53062886586616, 3.048; !- X,Y,Z Vertex 4 {m}

OS:Surface,
  {f0ef06cc-713f-442a-bd2c-d3c86b039796}, !- Handle
  Surface 11,                             !- Name
  Wall,                                   !- Surface Type
  ,                                       !- Construction Name
  {5bd8eb1a-5641-40fd-8a2b-8aea32afb9f0}, !- Space Name
  Surface,                                !- Outside Boundary Condition
  {b995ac74-e9a5-440f-8977-e7c2e9483ce4}, !- Outside Boundary Condition Object
  NoSun,                                  !- Sun Exposure
  NoWind,                                 !- Wind Exposure
  ,                                       !- View Factor to Ground
  ,                                       !- Number of Vertices
  -2.8421709430404e-14, -4.44089209850063e-16, 3.048, !- X,Y,Z Vertex 1 {m}
  -2.8421709430404e-14, -4.44089209850063e-16, 0, !- X,Y,Z Vertex 2 {m}
  4.57199999999997, -4.44089209850063e-16, 0, !- X,Y,Z Vertex 3 {m}
  4.57199999999997, -4.44089209850063e-16, 3.048; !- X,Y,Z Vertex 4 {m}

OS:Surface,
  {49fd8573-5d5f-4bef-bbed-5f465696124c}, !- Handle
  Surface 12,                             !- Name
  RoofCeiling,                            !- Surface Type
  ,                                       !- Construction Name
  {5bd8eb1a-5641-40fd-8a2b-8aea32afb9f0}, !- Space Name
  Adiabatic,                              !- Outside Boundary Condition
  ,                                       !- Outside Boundary Condition Object
  NoSun,                                  !- Sun Exposure
  NoWind,                                 !- Wind Exposure
  ,                                       !- View Factor to Ground
  ,                                       !- Number of Vertices
  4.57199999999997, -4.44089209850063e-16, 3.048, !- X,Y,Z Vertex 1 {m}
  4.57199999999997, 6.53062886586616, 3.048, !- X,Y,Z Vertex 2 {m}
  -2.8421709430404e-14, 6.53062886586616, 3.048, !- X,Y,Z Vertex 3 {m}
  -2.8421709430404e-14, -4.44089209850063e-16, 3.048; !- X,Y,Z Vertex 4 {m}

OS:ThermalZone,
  {2f3c0fb4-fb90-4c5f-8a34-6677e33f067d}, !- Handle
  Zone MidriseApartment Apartment B end_a - Story Ground, !- Name
  1,                                      !- Multiplier
  ,                                       !- Ceiling Height {m}
  ,                                       !- Volume {m3}
  ,                                       !- Floor Area {m2}
  ,                                       !- Zone Inside Convection Algorithm
  ,                                       !- Zone Outside Convection Algorithm
  ,                                       !- Zone Conditioning Equipment List Name
  {9d4944fb-4e6d-48ad-bbc3-fdb37945dbe9}, !- Zone Air Inlet Port List
  {036c520a-5852-4f38-b7c7-a48e17bca07a}, !- Zone Air Exhaust Port List
  {820c9b62-2522-4342-8fd0-ed98d76b70b7}, !- Zone Air Node Name
  {4fe7f146-4c85-42e4-b4b2-0835af0846c5}, !- Zone Return Air Port List
  ,                                       !- Primary Daylighting Control Name
  ,                                       !- Fraction of Zone Controlled by Primary Daylighting Control
  ,                                       !- Secondary Daylighting Control Name
  ,                                       !- Fraction of Zone Controlled by Secondary Daylighting Control
  ,                                       !- Illuminance Map Name
  ,                                       !- Group Rendering Name
  ,                                       !- Thermostat Name
  No;                                     !- Use Ideal Air Loads

OS:Node,
  {61d26e58-ce5d-4ded-9a45-a8b86b5cdf3a}, !- Handle
  Node 2,                                 !- Name
  {820c9b62-2522-4342-8fd0-ed98d76b70b7}, !- Inlet Port
  ;                                       !- Outlet Port

OS:Connection,
  {820c9b62-2522-4342-8fd0-ed98d76b70b7}, !- Handle
  {3f5a0eee-c153-4dea-86e6-f205073b9ba3}, !- Name
  {2f3c0fb4-fb90-4c5f-8a34-6677e33f067d}, !- Source Object
  11,                                     !- Outlet Port
  {61d26e58-ce5d-4ded-9a45-a8b86b5cdf3a}, !- Target Object
  2;                                      !- Inlet Port

OS:PortList,
  {9d4944fb-4e6d-48ad-bbc3-fdb37945dbe9}, !- Handle
  {5b2ce519-3adb-4d7a-8b8a-0ccfbd70ae65}, !- Name
  {2f3c0fb4-fb90-4c5f-8a34-6677e33f067d}; !- HVAC Component

OS:PortList,
  {036c520a-5852-4f38-b7c7-a48e17bca07a}, !- Handle
  {dc6a8f64-fb34-42a5-83d7-7a8b75b5100a}, !- Name
  {2f3c0fb4-fb90-4c5f-8a34-6677e33f067d}; !- HVAC Component

OS:PortList,
  {4fe7f146-4c85-42e4-b4b2-0835af0846c5}, !- Handle
  {c49c5fc4-87cf-4448-8704-065fca504bab}, !- Name
  {2f3c0fb4-fb90-4c5f-8a34-6677e33f067d}; !- HVAC Component

OS:Sizing:Zone,
  {f0785106-b2b8-42e6-9d54-409c5eb60cf4}, !- Handle
  {2f3c0fb4-fb90-4c5f-8a34-6677e33f067d}, !- Zone or ZoneList Name
  SupplyAirTemperature,                   !- Zone Cooling Design Supply Air Temperature Input Method
  14,                                     !- Zone Cooling Design Supply Air Temperature {C}
  11.11,                                  !- Zone Cooling Design Supply Air Temperature Difference {deltaC}
  SupplyAirTemperature,                   !- Zone Heating Design Supply Air Temperature Input Method
  40,                                     !- Zone Heating Design Supply Air Temperature {C}
  11.11,                                  !- Zone Heating Design Supply Air Temperature Difference {deltaC}
  0.0085,                                 !- Zone Cooling Design Supply Air Humidity Ratio {kg-H2O/kg-air}
  0.008,                                  !- Zone Heating Design Supply Air Humidity Ratio {kg-H2O/kg-air}
  ,                                       !- Zone Heating Sizing Factor
  ,                                       !- Zone Cooling Sizing Factor
  DesignDay,                              !- Cooling Design Air Flow Method
  ,                                       !- Cooling Design Air Flow Rate {m3/s}
  ,                                       !- Cooling Minimum Air Flow per Zone Floor Area {m3/s-m2}
  ,                                       !- Cooling Minimum Air Flow {m3/s}
  ,                                       !- Cooling Minimum Air Flow Fraction
  DesignDay,                              !- Heating Design Air Flow Method
  ,                                       !- Heating Design Air Flow Rate {m3/s}
  ,                                       !- Heating Maximum Air Flow per Zone Floor Area {m3/s-m2}
  ,                                       !- Heating Maximum Air Flow {m3/s}
  ,                                       !- Heating Maximum Air Flow Fraction
  ,                                       !- Design Zone Air Distribution Effectiveness in Cooling Mode
  ,                                       !- Design Zone Air Distribution Effectiveness in Heating Mode
  No,                                     !- Account for Dedicated Outdoor Air System
  NeutralSupplyAir,                       !- Dedicated Outdoor Air System Control Strategy
  autosize,                               !- Dedicated Outdoor Air Low Setpoint Temperature for Design {C}
  autosize;                               !- Dedicated Outdoor Air High Setpoint Temperature for Design {C}

OS:ZoneHVAC:EquipmentList,
  {ebbd7d89-0558-4af5-973a-782e0d004d81}, !- Handle
  Zone HVAC Equipment List 2,             !- Name
  {2f3c0fb4-fb90-4c5f-8a34-6677e33f067d}; !- Thermal Zone

OS:Space,
  {83ea606f-4998-4c6b-82a7-513385c762ce}, !- Handle
  MidriseApartment Apartment C end_a - Story Ground, !- Name
  {698abe57-4435-4a58-8f77-3b9e67adec41}, !- Space Type Name
  ,                                       !- Default Construction Set Name
  ,                                       !- Default Schedule Set Name
  -0,                                     !- Direction of Relative North {deg}
  -21.552614690566,                       !- X Origin {m}
  3.26531443293308,                       !- Y Origin {m}
  0,                                      !- Z Origin {m}
  {177125b3-a2e8-46d0-8742-61ba5a211541}, !- Building Story Name
  {5e1b770e-9a75-44de-9a73-7978840c4a1c}; !- Thermal Zone Name

OS:Surface,
  {fcb07da6-66d7-4dc9-8db6-bc14cddbc0d6}, !- Handle
  Surface 13,                             !- Name
  Floor,                                  !- Surface Type
  ,                                       !- Construction Name
  {83ea606f-4998-4c6b-82a7-513385c762ce}, !- Space Name
  Ground,                                 !- Outside Boundary Condition
  ,                                       !- Outside Boundary Condition Object
  NoSun,                                  !- Sun Exposure
  NoWind,                                 !- Wind Exposure
  ,                                       !- View Factor to Ground
  ,                                       !- Number of Vertices
  -2.8421709430404e-14, 4.44089209850063e-16, 0, !- X,Y,Z Vertex 1 {m}
  -2.8421709430404e-14, 4.572, 0,         !- X,Y,Z Vertex 2 {m}
  4.57199999999997, 4.572, 0,             !- X,Y,Z Vertex 3 {m}
  4.57199999999997, 4.44089209850063e-16, 0; !- X,Y,Z Vertex 4 {m}

OS:Surface,
  {e39b2bf1-ddce-4095-9c1c-d0aeded580ac}, !- Handle
  Surface 14,                             !- Name
  Wall,                                   !- Surface Type
  ,                                       !- Construction Name
  {83ea606f-4998-4c6b-82a7-513385c762ce}, !- Space Name
  Outdoors,                               !- Outside Boundary Condition