
OS:Version,
  {898f7d94-33d6-44df-8237-f47c973bede3}, !- Handle
  2.8.0;                                  !- Version Identifier

OS:SpaceType,
  {344d274b-c862-455f-bec1-c4d5ff7ba2d2}, !- Handle
  Warehouse Bulk,                         !- Name
  ,                                       !- Default Construction Set Name
  ,                                       !- Default Schedule Set Name
  {a9e1a6b3-3d8d-411e-9453-737a49f0d8c8}, !- Group Rendering Name
  ,                                       !- Design Specification Outdoor Air Object Name
  ,                                       !- Standards Template
  Warehouse,                              !- Standards Building Type
  Bulk;                                   !- Standards Space Type

OS:Rendering:Color,
  {a9e1a6b3-3d8d-411e-9453-737a49f0d8c8}, !- Handle
  Warehouse Bulk,                         !- Name
  41,                                     !- Rendering Red Value
  31,                                     !- Rendering Green Value
  169;                                    !- Rendering Blue Value

OS:SpaceType,
  {4e6e2e79-5ef5-407f-b155-eeea17fb3cf6}, !- Handle
  Warehouse Fine,                         !- Name
  ,                                       !- Default Construction Set Name
  ,                                       !- Default Schedule Set Name
  {2dfdb990-9ede-4d3d-b245-b1d9bd570583}, !- Group Rendering Name
  ,                                       !- Design Specification Outdoor Air Object Name
  ,                                       !- Standards Template
  Warehouse,                              !- Standards Building Type
  Fine;                                   !- Standards Space Type

OS:Rendering:Color,
  {2dfdb990-9ede-4d3d-b245-b1d9bd570583}, !- Handle
  Warehouse Fine,                         !- Name
  120,                                    !- Rendering Red Value
  149,                                    !- Rendering Green Value
  230;                                    !- Rendering Blue Value

OS:SpaceType,
  {5528fed4-a7e2-4c66-94c4-878a92c7c747}, !- Handle
  Warehouse Office,                       !- Name
  ,                                       !- Default Construction Set Name
  ,                                       !- Default Schedule Set Name
  {8c8ad642-dbfa-4238-a93f-b7a727240c11}, !- Group Rendering Name
  ,                                       !- Design Specification Outdoor Air Object Name
  ,                                       !- Standards Template
  Warehouse,                              !- Standards Building Type
  Office;                                 !- Standards Space Type

OS:Rendering:Color,
  {8c8ad642-dbfa-4238-a93f-b7a727240c11}, !- Handle
  Warehouse Office,                       !- Name
  120,                                    !- Rendering Red Value
  230,                                    !- Rendering Green Value
  199;                                    !- Rendering Blue Value

OS:Building,
  {cdf3c3a5-5a7c-451b-9790-6f00c4801bf7}, !- Handle
  90.1-2004|Warehouse,                    !- Name
  ,                                       !- Building Sector Type
  ,                                       !- North Axis {deg}
  ,                                       !- Nominal Floor to Floor Height {m}
  ,                                       !- Space Type Name
  ,                                       !- Default Construction Set Name
  ;                                       !- Default Schedule Set Name

OS:Site,
  {b5cff420-e088-4a79-b4f1-13955add3569}, !- Handle
  Site 1,                                 !- Name
  ,                                       !- Latitude {deg}
  ,                                       !- Longitude {deg}
  ,                                       !- Time Zone {hr}
  ,                                       !- Elevation {m}
  ;                                       !- Terrain

OS:BuildingStory,
  {302238d9-e236-40a0-9c75-de42ae3f9fee}, !- Handle
  Story Ground,                           !- Name
  0,                                      !- Nominal Z Coordinate {m}
  8.5344,                                 !- Nominal Floor to Floor Height {m}
  ,                                       !- Default Construction Set Name
  ,                                       !- Default Schedule Set Name
  ;                                       !- Group Rendering Name

OS:Space,
  {caa9aa26-1acf-4841-b595-625b78a499b4}, !- Handle
  Warehouse Bulk A end_a - Story Ground,  !- Name
  {344d274b-c862-455f-bec1-c4d5ff7ba2d2}, !- Space Type Name
  ,                                       !- Default Construction Set Name
  ,                                       !- Default Schedule Set Name
  -0,                                     !- Direction of Relative North {deg}
  -71.4819361797091,                      !- X Origin {m}
  -32.491789172595,                       !- Y Origin {m}
  0,                                      !- Z Origin {m}
  {302238d9-e236-40a0-9c75-de42ae3f9fee}, !- Building Story Name
  {05ecaed5-716c-4727-aada-cece83c71bc6}; !- Thermal Zone Name

OS:Surface,
  {09c5f0a7-5f7a-45d0-9ee7-91c5bcdea13c}, !- Handle
  Surface 1,                              !- Name
  Floor,                                  !- Surface Type
  ,                                       !- Construction Name
  {caa9aa26-1acf-4841-b595-625b78a499b4}, !- Space Name
  Ground,                                 !- Outside Boundary Condition
  ,                                       !- Outside Boundary Condition Object
  NoSun,                                  !- Sun Exposure
  NoWind,                                 !- Wind Exposure
  ,                                       !- View Factor to Ground
  ,                                       !- Number of Vertices
  -4.2632564145606e-14, 3.5527136788005e-14, 0, !- X,Y,Z Vertex 1 {m}
  -4.2632564145606e-14, 4.57200000000003, 0, !- X,Y,Z Vertex 2 {m}
  4.57200000000005, 4.57200000000003, 0,  !- X,Y,Z Vertex 3 {m}
  4.57200000000005, 3.5527136788005e-14, 0; !- X,Y,Z Vertex 4 {m}

OS:Surface,
  {c8c11aa9-2ce5-4343-afda-eb366b8d58d7}, !- Handle
  Surface 2,                              !- Name
  Wall,                                   !- Surface Type
  ,                                       !- Construction Name
  {caa9aa26-1acf-4841-b595-625b78a499b4}, !- Space Name
  Outdoors,                               !- Outside Boundary Condition
  ,                                       !- Outside Boundary Condition Object
  SunExposed,                             !- Sun Exposure
  WindExposed,                            !- Wind Exposure
  ,                                       !- View Factor to Ground
  ,                                       !- Number of Vertices
  -4.2632564145606e-14, 4.57200000000003, 8.5344, !- X,Y,Z Vertex 1 {m}
  -4.2632564145606e-14, 4.57200000000003, 0, !- X,Y,Z Vertex 2 {m}
  -4.2632564145606e-14, 3.5527136788005e-14, 0, !- X,Y,Z Vertex 3 {m}
  -4.2632564145606e-14, 3.5527136788005e-14, 8.5344; !- X,Y,Z Vertex 4 {m}

OS:Surface,
  {bfb4c809-fd6f-4ffa-b7e9-b2957fd1ca7f}, !- Handle
  Surface 3,                              !- Name
  Wall,                                   !- Surface Type
  ,                                       !- Construction Name
  {caa9aa26-1acf-4841-b595-625b78a499b4}, !- Space Name
  Surface,                                !- Outside Boundary Condition
  {ba2c3593-65a8-4545-87e9-d08d92399cde}, !- Outside Boundary Condition Object
  NoSun,                                  !- Sun Exposure
  NoWind,                                 !- Wind Exposure
  ,                                       !- View Factor to Ground
  ,                                       !- Number of Vertices
  4.57200000000005, 4.57200000000003, 8.5344, !- X,Y,Z Vertex 1 {m}
  4.57200000000005, 4.57200000000003, 0,  !- X,Y,Z Vertex 2 {m}
  -4.2632564145606e-14, 4.57200000000003, 0, !- X,Y,Z Vertex 3 {m}
  -4.2632564145606e-14, 4.57200000000003, 8.5344; !- X,Y,Z Vertex 4 {m}

OS:Surface,
  {d06d128c-ccd7-43b7-a525-d168552681c6}, !- Handle
  Surface 4,                              !- Name
  Wall,                                   !- Surface Type
  ,                                       !- Construction Name
  {caa9aa26-1acf-4841-b595-625b78a499b4}, !- Space Name
  Surface,                                !- Outside Boundary Condition
  {bff11acf-02d8-4306-a9cc-2a075efcea98}, !- Outside Boundary Condition Object
  NoSun,                                  !- Sun Exposure
  NoWind,                                 !- Wind Exposure
  ,                                       !- View Factor to Ground
  ,                                       !- Number of Vertices
  4.57200000000005, 3.5527136788005e-14, 8.5344, !- X,Y,Z Vertex 1 {m}
  4.57200000000005, 3.5527136788005e-14, 0, !- X,Y,Z Vertex 2 {m}
  4.57200000000005, 4.57200000000003, 0,  !- X,Y,Z Vertex 3 {m}
  4.57200000000005, 4.57200000000003, 8.5344; !- X,Y,Z Vertex 4 {m}

OS:Surface,
  {f498d99d-33e0-4e2a-8fbd-a88d2181a9f3}, !- Handle
  Surface 5,                              !- Name
  Wall,                                   !- Surface Type
  ,                                       !- Construction Name
  {caa9aa26-1acf-4841-b595-625b78a499b4}, !- Space Name
  Outdoors,                               !- Outside Boundary Condition
  ,                                       !- Outside Boundary Condition Object
  SunExposed,                             !- Sun Exposure
  WindExposed,                            !- Wind Exposure
  ,                                       !- View Factor to Ground
  ,                                       !- Number of Vertices
  -4.2632564145606e-14, 3.5527136788005e-14, 8.5344, !- X,Y,Z Vertex 1 {m}
  -4.2632564145606e-14, 3.5527136788005e-14, 0, !- X,Y,Z Vertex 2 {m}
  4.57200000000005, 3.5527136788005e-14, 0, !- X,Y,Z Vertex 3 {m}
  4.57200000000005, 3.5527136788005e-14, 8.5344; !- X,Y,Z Vertex 4 {m}

OS:Surface,
  {6cd48b34-fb38-4d1b-8416-607ea25e1954}, !- Handle
  Surface 6,                              !- Name
  RoofCeiling,                            !- Surface Type
  ,                                       !- Construction Name
  {caa9aa26-1acf-4841-b595-625b78a499b4}, !- Space Name
  Outdoors,                               !- Outside Boundary Condition
  ,                                       !- Outside Boundary Condition Object
  SunExposed,                             !- Sun Exposure
  WindExposed,                            !- Wind Exposure
  ,                                       !- View Factor to Ground
  ,                                       !- Number of Vertices
  4.57200000000005, 3.5527136788005e-14, 8.5344, !- X,Y,Z Vertex 1 {m}
  4.57200000000005, 4.57200000000003, 8.5344, !- X,Y,Z Vertex 2 {m}
  -4.2632564145606e-14, 4.57200000000003, 8.5344, !- X,Y,Z Vertex 3 {m}
  -4.2632564145606e-14, 3.5527136788005e-14, 8.5344; !- X,Y,Z Vertex 4 {m}

OS:ThermalZone,
  {05ecaed5-716c-4727-aada-cece83c71bc6}, !- Handle
  Zone Warehouse Bulk A end_a - Story Ground, !- Name
  1,                                      !- Multiplier
  ,                                       !- Ceiling Height {m}
  ,                                       !- Volume {m3}
  ,                                       !- Floor Area {m2}
  ,                                       !- Zone Inside Convection Algorithm
  ,                                       !- Zone Outside Convection Algorithm
  ,                                       !- Zone Conditioning Equipment List Name
  {6d165e3a-b9c1-4d0a-985a-a4bc60493c4c}, !- Zone Air Inlet Port List
  {71f2fbe3-eccb-494b-9405-2e1a533cc780}, !- Zone Air Exhaust Port List
  {fa5bbb4f-87d6-42fe-8293-044478babe57}, !- Zone Air Node Name
  {879be5e2-e8b1-410b-8a24-a1dd8dc1715c}, !- Zone Return Air Port List
  ,                                       !- Primary Daylighting Control Name
  ,                                       !- Fraction of Zone Controlled by Primary Daylighting Control
  ,                                       !- Secondary Daylighting Control Name
  ,                                       !- Fraction of Zone Controlled by Secondary Daylighting Control
  ,                                       !- Illuminance Map Name
  ,                                       !- Group Rendering Name
  ,                                       !- Thermostat Name
  No;                                     !- Use Ideal Air Loads

OS:Node,
  {415ce7be-88a7-40f3-bed7-34a82fa0bc60}, !- Handle
  Node 1,                                 !- Name
  {fa5bbb4f-87d6-42fe-8293-044478babe57}, !- Inlet Port
  ;                                       !- Outlet Port

OS:Connection,
  {fa5bbb4f-87d6-42fe-8293-044478babe57}, !- Handle
  {ab8e39e8-103b-4bb7-95fa-388d55de784a}, !- Name
  {05ecaed5-716c-4727-aada-cece83c71bc6}, !- Source Object
  11,                                     !- Outlet Port
  {415ce7be-88a7-40f3-bed7-34a82fa0bc60}, !- Target Object
  2;                                      !- Inlet Port

OS:PortList,
  {6d165e3a-b9c1-4d0a-985a-a4bc60493c4c}, !- Handle
  {bfb17898-0f32-46a1-a71b-de3ced678838}, !- Name
  {05ecaed5-716c-4727-aada-cece83c71bc6}; !- HVAC Component

OS:PortList,
  {71f2fbe3-eccb-494b-9405-2e1a533cc780}, !- Handle
  {b3dd2295-8755-40f2-b260-96bf7a304670}, !- Name
  {05ecaed5-716c-4727-aada-cece83c71bc6}; !- HVAC Component

OS:PortList,
  {879be5e2-e8b1-410b-8a24-a1dd8dc1715c}, !- Handle
  {f4aa0902-0295-448d-85dd-29ddc3883ea0}, !- Name
  {05ecaed5-716c-4727-aada-cece83c71bc6}; !- HVAC Component

OS:Sizing:Zone,
  {ff17bd27-04eb-46a3-93b5-e084d141797b}, !- Handle
  {05ecaed5-716c-4727-aada-cece83c71bc6}, !- Zone or ZoneList Name
  SupplyAirTemperature,                   !- Zone Cooling Design Supply Air Temperature Input Method
  14,                                     !- Zone Cooling Design Supply Air Temperature {C}
  11.11,                                  !- Zone Cooling Design Supply Air Temperature Difference {deltaC}
  SupplyAirTemperature,                   !- Zone Heating Design Supply Air Temperature Input Method
  40,                                     !- Zone Heating Design Supply Air Temperature {C}
  11.11,                                  !- Zone Heating Design Supply Air Temperature Difference {deltaC}
  0.0085,                                 !- Zone Cooling Design Supply Air Humidity Ratio {kg-H2O/kg-air}
  0.008,                                  !- Zone Heating Design Supply Air Humidity Ratio {kg-H2O/kg-air}
  ,                                       !- Zone Heating Sizing Factor
  ,                                       !- Zone Cooling Sizing Factor
  DesignDay,                              !- Cooling Design Air Flow Method
  ,                                       !- Cooling Design Air Flow Rate {m3/s}
  ,                                       !- Cooling Minimum Air Flow per Zone Floor Area {m3/s-m2}
  ,                                       !- Cooling Minimum Air Flow {m3/s}
  ,                                       !- Cooling Minimum Air Flow Fraction
  DesignDay,                              !- Heating Design Air Flow Method
  ,                                       !- Heating Design Air Flow Rate {m3/s}
  ,                                       !- Heating Maximum Air Flow per Zone Floor Area {m3/s-m2}
  ,                                       !- Heating Maximum Air Flow {m3/s}
  ,                                       !- Heating Maximum Air Flow Fraction
  ,                                       !- Design Zone Air Distribution Effectiveness in Cooling Mode
  ,                                       !- Design Zone Air Distribution Effectiveness in Heating Mode
  No,                                     !- Account for Dedicated Outdoor Air System
  NeutralSupplyAir,                       !- Dedicated Outdoor Air System Control Strategy
  autosize,                               !- Dedicated Outdoor Air Low Setpoint Temperature for Design {C}
  autosize;                               !- Dedicated Outdoor Air High Setpoint Temperature for Design {C}

OS:ZoneHVAC:EquipmentList,
  {7de6a49d-3dbe-43cb-ac4e-ae98e00f6033}, !- Handle
  Zone HVAC Equipment List 1,             !- Name
  {05ecaed5-716c-4727-aada-cece83c71bc6}; !- Thermal Zone

OS:Space,
  {74b3afcf-18eb-4ee1-96b7-7d740d180dd4}, !- Handle
  Warehouse Bulk B end_a - Story Ground,  !- Name
  {344d274b-c862-455f-bec1-c4d5ff7ba2d2}, !- Space Type Name
  ,                                       !- Default Construction Set Name
  ,                                       !- Default Schedule Set Name
  -0,                                     !- Direction of Relative North {deg}
  -71.4819361797091,                      !- X Origin {m}
  -27.919789172595,                       !- Y Origin {m}
  0,                                      !- Z Origin {m}
  {302238d9-e236-40a0-9c75-de42ae3f9fee}, !- Building Story Name
  {28497ed5-ca97-428f-9ea2-55ac7ff986dd}; !- Thermal Zone Name

OS:Surface,
  {bcdd8dd8-0cae-4800-b107-264c91deec8e}, !- Handle
  Surface 7,                              !- Name
  Floor,                                  !- Surface Type
  ,                                       !- Construction Name
  {74b3afcf-18eb-4ee1-96b7-7d740d180dd4}, !- Space Name
  Ground,                                 !- Outside Boundary Condition
  ,                                       !- Outside Boundary Condition Object
  NoSun,                                  !- Sun Exposure
  NoWind,                                 !- Wind Exposure
  ,                                       !- View Factor to Ground
  ,                                       !- Number of Vertices
  -4.2632564145606e-14, 3.5527136788005e-14, 0, !- X,Y,Z Vertex 1 {m}
  -4.2632564145606e-14, 55.83957834519, 0, !- X,Y,Z Vertex 2 {m}
  4.57200000000005, 55.83957834519, 0,    !- X,Y,Z Vertex 3 {m}
  4.57200000000005, 3.5527136788005e-14, 0; !- X,Y,Z Vertex 4 {m}

OS:Surface,
  {27b93c4d-2a1d-4396-89c1-3e270000fe3e}, !- Handle
  Surface 8,                              !- Name
  Wall,                                   !- Surface Type
  ,                                       !- Construction Name
  {74b3afcf-18eb-4ee1-96b7-7d740d180dd4}, !- Space Name
  Outdoors,                               !- Outside Boundary Condition
  ,                                       !- Outside Boundary Condition Object
  SunExposed,                             !- Sun Exposure
  WindExposed,                            !- Wind Exposure
  ,                                       !- View Factor to Ground
  ,                                       !- Number of Vertices
  -4.2632564145606e-14, 55.83957834519, 8.5344, !- X,Y,Z Vertex 1 {m}
  -4.2632564145606e-14, 55.83957834519, 0, !- X,Y,Z Vertex 2 {m}
  -4.2632564145606e-14, 3.5527136788005e-14, 0, !- X,Y,Z Vertex 3 {m}
  -4.2632564145606e-14, 3.5527136788005e-14, 8.5344; !- X,Y,Z Vertex 4 {m}

OS:Surface,
  {9360d617-82dc-4fff-a487-7b10fab03863}, !- Handle
  Surface 9,                              !- Name
  Wall,                                   !- Surface Type
  ,                                       !- Construction Name
  {74b3afcf-18eb-4ee1-96b7-7d740d180dd4}, !- Space Name
  Surface,                                !- Outside Boundary Condition
  {a80906a9-2ac5-4f46-9a8c-7db54f2e42e4}, !- Outside Boundary Condition Object
  NoSun,                                  !- Sun Exposure
  NoWind,                                 !- Wind Exposure
  ,                                       !- View Factor to Ground
  ,                                       !- Number of Vertices
  4.57200000000005, 55.83957834519, 8.5344, !- X,Y,Z Vertex 1 {m}
  4.57200000000005, 55.83957834519, 0,    !- X,Y,Z Vertex 2 {m}
  -4.2632564145606e-14, 55.83957834519, 0, !- X,Y,Z Vertex 3 {m}
  -4.2632564145606e-14, 55.83957834519, 8.5344; !- X,Y,Z Vertex 4 {m}

OS:Surface,
  {5d3de4dd-4b97-4900-b79b-ed6c66a24f02}, !- Handle
  Surface 10,                             !- Name
  Wall,                                   !- Surface Type
  ,                                       !- Construction Name
  {74b3afcf-18eb-4ee1-96b7-7d740d180dd4}, !- Space Name
  Surface,                                !- Outside Boundary Condition
  {644de441-5b34-48db-be1f-396d056e9646}, !- Outside Boundary Condition Object
  NoSun,                                  !- Sun Exposure
  NoWind,                                 !- Wind Exposure
  ,                                       !- View Factor to Ground
  ,                                       !- Number of Vertices
  4.57200000000005, 3.5527136788005e-14, 8.5344, !- X,Y,Z Vertex 1 {m}
  4.57200000000005, 3.5527136788005e-14, 0, !- X,Y,Z Vertex 2 {m}
  4.57200000000005, 55.83957834519, 0,    !- X,Y,Z Vertex 3 {m}
  4.57200000000005, 55.83957834519, 8.5344; !- X,Y,Z Vertex 4 {m}

OS:Surface,
  {ba2c3593-65a8-4545-87e9-d08d92399cde}, !- Handle
  Surface 11,                             !- Name
  Wall,                                   !- Surface Type
  ,                                       !- Construction Name
  {74b3afcf-18eb-4ee1-96b7-7d740d180dd4}, !- Space Name
  Surface,                                !- Outside Boundary Condition
  {bfb4c809-fd6f-4ffa-b7e9-b2957fd1ca7f}, !- Outside Boundary Condition Object
  NoSun,                                  !- Sun Exposure
  NoWind,                                 !- Wind Exposure
  ,                                       !- View Factor to Ground
  ,                                       !- Number of Vertices
  -4.2632564145606e-14, 3.5527136788005e-14, 8.5344, !- X,Y,Z Vertex 1 {m}
  -4.2632564145606e-14, 3.5527136788005e-14, 0, !- X,Y,Z Vertex 2 {m}
  4.57200000000005, 3.5527136788005e-14, 0, !- X,Y,Z Vertex 3 {m}
  4.57200000000005, 3.5527136788005e-14, 8.5344; !- X,Y,Z Vertex 4 {m}

OS:Surface,
  {7d08b24c-cfe3-4122-a88d-674ab5ab53fe}, !- Handle
  Surface 12,                             !- Name
  RoofCeiling,                            !- Surface Type
  ,                                       !- Construction Name
  {74b3afcf-18eb-4ee1-96b7-7d740d180dd4}, !- Space Name
  Outdoors,                               !- Outside Boundary Condition
  ,                                       !- Outside Boundary Condition Object
  SunExposed,                             !- Sun Exposure
  WindExposed,                            !- Wind Exposure
  ,                                       !- View Factor to Ground
  ,                                       !- Number of Vertices
  4.57200000000005, 3.5527136788005e-14, 8.5344, !- X,Y,Z Vertex 1 {m}
  4.57200000000005, 55.83957834519, 8.5344, !- X,Y,Z Vertex 2 {m}
  -4.2632564145606e-14, 55.83957834519, 8.5344, !- X,Y,Z Vertex 3 {m}
  -4.2632564145606e-14, 3.5527136788005e-14, 8.5344; !- X,Y,Z Vertex 4 {m}

OS:ThermalZone,
  {28497ed5-ca97-428f-9ea2-55ac7ff986dd}, !- Handle
  Zone Warehouse Bulk B end_a - Story Ground, !- Name
  1,                                      !- Multiplier
  ,                                       !- Ceiling Height {m}
  ,                                       !- Volume {m3}
  ,                                       !- Floor Area {m2}
  ,                                       !- Zone Inside Convection Algorithm
  ,                                       !- Zone Outside Convection Algorithm
  ,                                       !- Zone Conditioning Equipment List Name
  {edbc369e-d88c-4600-992c-1a32dd049e1a}, !- Zone Air Inlet Port List
  {5a259a8d-36f5-4bfc-9a69-094ba025575a}, !- Zone Air Exhaust Port List
  {7008eccd-22bb-4dcf-909e-246c7f3ee6bf}, !- Zone Air Node Name
  {c52c6903-64c9-4a8b-bd3a-bbe11b00ecb1}, !- Zone Return Air Port List
  ,                                       !- Primary Daylighting Control Name
  ,                                       !- Fraction of Zone Controlled by Primary Daylighting Control
  ,                                       !- Secondary Daylighting Control Name
  ,                                       !- Fraction of Zone Controlled by Secondary Daylighting Control
  ,                                       !- Illuminance Map Name
  ,                                       !- Group Rendering Name
  ,                                       !- Thermostat Name
  No;                                     !- Use Ideal Air Loads

OS:Node,
  {37b23cdd-9a6f-4e36-bd7a-053bf980a0d3}, !- Handle
  Node 2,                                 !- Name
  {7008eccd-22bb-4dcf-909e-246c7f3ee6bf}, !- Inlet Port
  ;                                       !- Outlet Port

OS:Connection,
  {7008eccd-22bb-4dcf-909e-246c7f3ee6bf}, !- Handle
  {345c1cf3-c33c-4cbc-85e5-fe81c541558f}, !- Name
  {28497ed5-ca97-428f-9ea2-55ac7ff986dd}, !- Source Object
  11,                                     !- Outlet Port
  {37b23cdd-9a6f-4e36-bd7a-053bf980a0d3}, !- Target Object
  2;                                      !- Inlet Port

OS:PortList,
  {edbc369e-d88c-4600-992c-1a32dd049e1a}, !- Handle
  {059e8442-8f96-499a-8293-28dd6d77e89a}, !- Name
  {28497ed5-ca97-428f-9ea2-55ac7ff986dd}; !- HVAC Component

OS:PortList,
  {5a259a8d-36f5-4bfc-9a69-094ba025575a}, !- Handle
  {8bbb1439-aee1-4b35-a4ce-b00b2fccfd26}, !- Name
  {28497ed5-ca97-428f-9ea2-55ac7ff986dd}; !- HVAC Component

OS:PortList,
  {c52c6903-64c9-4a8b-bd3a-bbe11b00ecb1}, !- Handle
  {b4cd1969-8f72-4068-a6f0-bd82e209e22b}, !- Name
  {28497ed5-ca97-428f-9ea2-55ac7ff986dd}; !- HVAC Component

OS:Sizing:Zone,
  {454811ec-9355-4450-84fd-6f11adad01dd}, !- Handle
  {28497ed5-ca97-428f-9ea2-55ac7ff986dd}, !- Zone or ZoneList Name
  SupplyAirTemperature,                   !- Zone Cooling Design Supply Air Temperature Input Method
  14,                                     !- Zone Cooling Design Supply Air Temperature {C}
  11.11,                                  !- Zone Cooling Design Supply Air Temperature Difference {deltaC}
  SupplyAirTemperature,                   !- Zone Heating Design Supply Air Temperature Input Method
  40,                                     !- Zone Heating Design Supply Air Temperature {C}
  11.11,                                  !- Zone Heating Design Supply Air Temperature Difference {deltaC}
  0.0085,                                 !- Zone Cooling Design Supply Air Humidity Ratio {kg-H2O/kg-air}
  0.008,                                  !- Zone Heating Design Supply Air Humidity Ratio {kg-H2O/kg-air}
  ,                                       !- Zone Heating Sizing Factor
  ,                                       !- Zone Cooling Sizing Factor
  DesignDay,                              !- Cooling Design Air Flow Method
  ,                                       !- Cooling Design Air Flow Rate {m3/s}
  ,                                       !- Cooling Minimum Air Flow per Zone Floor Area {m3/s-m2}
  ,                                       !- Cooling Minimum Air Flow {m3/s}
  ,                                       !- Cooling Minimum Air Flow Fraction
  DesignDay,                              !- Heating Design Air Flow Method
  ,                                       !- Heating Design Air Flow Rate {m3/s}
  ,                                       !- Heating Maximum Air Flow per Zone Floor Area {m3/s-m2}
  ,                                       !- Heating Maximum Air Flow {m3/s}
  ,                                       !- Heating Maximum Air Flow Fraction
  ,                                       !- Design Zone Air Distribution Effectiveness in Cooling Mode
  ,                                       !- Design Zone Air Distribution Effectiveness in Heating Mode
  No,                                     !- Account for Dedicated Outdoor Air System
  NeutralSupplyAir,                       !- Dedicated Outdoor Air System Control Strategy
  autosize,                               !- Dedicated Outdoor Air Low Setpoint Temperature for Design {C}
  autosize;                               !- Dedicated Outdoor Air High Setpoint Temperature for Design {C}

OS:ZoneHVAC:EquipmentList,
  {560097ce-4b13-451b-8458-c7e06eefc932}, !- Handle
  Zone HVAC Equipment List 2,             !- Name
  {28497ed5-ca97-428f-9ea2-55ac7ff986dd}; !- Thermal Zone

OS:Space,
  {ffe58b3c-3341-4649-801d-73a8eedf7b82}, !- Handle
  Warehouse Bulk C end_a - Story Ground,  !- Name
  {344d274b-c862-455f-bec1-c4d5ff7ba2d2}, !- Space Type Name
  ,                                       !- Default Construction Set Name
  ,                                       !- Default Schedule Set Name
  -0,                                     !- Direction of Relative North {deg}
  -71.4819361797091,                      !- X Origin {m}
  27.919789172595,                        !- Y Origin {m}
  0,                                      !- Z Origin {m}
  {302238d9-e236-40a0-9c75-de42ae3f9fee}, !- Building Story Name
  {24f1583e-ccee-4d0b-9463-3e923b1debaa}; !- Thermal Zone Name

OS:Surface,
  {a5222db2-e99f-4a05-bb37-a650521a2ab9}, !- Handle
  Surface 13,                             !- Name
  Floor,                                  !- Surface Type
  ,                                       !- Construction Name
  {ffe58b3c-3341-4649-801d-73a8eedf7b82}, !- Space Name
  Ground,                                 !- Outside Boundary Condition
  ,                                       !- Outside Boundary Condition Object
  NoSun,                                  !- Sun Exposure
  NoWind,                                 !- Wind Exposure
  ,                                       !- View Factor to Ground
  ,                                       !- Number of Vertices
  -4.2632564145606e-14, -3.5527136788005e-14, 0, !- X,Y,Z Vertex 1 {m}
  -4.2632564145606e-14, 4.57199999999996, 0, !- X,Y,Z Vertex 2 {m}
  4.57200000000005, 4.57199999999996, 0,  !- X,Y,Z Vertex 3 {m}
  4.57200000000005, -3.5527136788005e-14, 0; !- X,Y,Z Vertex 4 {m}

OS:Surface,
  {8999b271-1451-4737-9f16-79f4d4aab1aa}, !- Handle
  Surface 14,                             !- Name
  Wall,                                   !- Surface Type
  ,                                       !- Construction Name
  {ffe58b3c-3341-4649-801d-73a8eedf7b82}, !- Space Name